50
2_0.115
C	1.66781	-2.31756	-1.29400
O	1.77392	-3.46182	-0.39745
C	3.12761	-3.80705	-0.17926
C	3.14560	-4.99112	0.75522
C	2.69584	-6.31244	0.18304
O	1.29508	-6.24038	0.00435
C	0.77705	-7.48638	-0.54656
C	3.53285	-4.87279	2.03498
H	2.47613	-1.58022	-1.04242
H	1.76861	-2.68554	-2.34149
H	3.68900	-2.94751	0.26000
H	3.62369	-4.07301	-1.14373
H	3.84932	-3.89490	2.44083
H	3.52987	-5.74857	2.70888
H	2.96435	-7.15242	0.86805
H	3.20538	-6.50035	-0.79272
H	1.01711	-8.32560	0.15943
H	1.24943	-7.64937	-1.54310
H	-0.32142	-7.40189	-0.66886
Li	-0.01691	-4.60814	0.53482
C	0.31344	-1.67151	-1.11671
C	0.10494	-0.55975	-0.37401
C	-1.22805	0.14808	-0.27464
C	1.17873	0.11511	0.45045
H	-1.72309	-0.07078	0.69753
H	-1.93625	-0.12780	-1.08432
H	-1.09564	1.25088	-0.34091
H	1.54117	1.04062	-0.04963
H	2.06016	-0.53246	0.64322
H	0.78459	0.40762	1.44900
C	-0.78305	-2.40045	-1.85797
O	-1.19629	-3.56227	-1.08092
C	-2.47717	-4.00694	-1.48198
C	-2.82380	-5.20562	-0.63428
C	-3.15302	-4.93896	0.81350
O	-1.94583	-4.59591	1.46483
C	-2.17739	-4.32328	2.87779
C	-2.82907	-6.44876	-1.14058
H	-0.40229	-2.74528	-2.85620
H	-1.66404	-1.72698	-1.97247
H	-2.48137	-4.27425	-2.56615
H	-3.23536	-3.20070	-1.33310
H	-2.57503	-6.62739	-2.20110
H	-3.07507	-7.31696	-0.50273
H	-3.61568	-5.83850	1.28645
H	-3.89015	-4.10368	0.89086
H	-2.61051	-5.23969	3.36042
H	-2.87560	-3.45767	2.95543
H	-1.21425	-4.06436	3.36158
Li	0.04051	-4.55165	0.61663
