46
3_0.29
C	1.23419	-1.74847	-0.82818
O	1.31073	-3.18430	-0.58962
C	2.42687	-3.74615	-1.25130
C	2.42870	-5.22526	-0.95502
C	2.80522	-5.63470	0.44718
O	1.73034	-5.27878	1.29405
C	2.01476	-5.64472	2.67592
C	2.10168	-6.13141	-1.88973
H	1.14015	-1.56608	-1.93192
H	2.15791	-1.27777	-0.41834
H	2.36797	-3.56281	-2.35122
H	3.37366	-3.28115	-0.88470
H	1.81800	-5.81344	-2.90932
H	2.09793	-7.21073	-1.65266
H	3.00298	-6.73246	0.49942
H	3.74023	-5.11087	0.76087
H	2.17944	-6.75373	2.73360
H	2.92051	-5.08429	3.00507
H	1.15349	-5.35991	3.31298
Li	-0.11117	-4.19735	0.93291
C	0.00604	-1.18057	-0.10123
C	-0.01559	0.35457	-0.20042
H	0.07327	-1.46297	0.97675
H	-0.88478	0.78681	0.34449
H	-0.08222	0.69709	-1.25729
H	0.90327	0.80507	0.23771
C	-1.28801	-1.77431	-0.67760
O	-1.30609	-3.21119	-0.43377
C	-2.20034	-3.86063	-1.31570
C	-2.15539	-5.33464	-0.99815
C	-2.80281	-5.76938	0.29313
O	-1.97425	-5.32805	1.35048
C	-2.53096	-5.71222	2.64155
C	-1.55998	-6.21428	-1.81880
H	-1.32986	-1.59109	-1.78441
H	-2.16582	-1.32232	-0.15997
H	-1.91176	-3.67564	-2.37843
H	-3.23769	-3.47083	-1.17785
H	-1.08114	-5.87719	-2.75594
H	-1.52689	-7.28943	-1.56561
H	-2.92292	-6.87918	0.32175
H	-3.82139	-5.32011	0.38086
H	-2.61928	-6.83062	2.68304
H	-3.52735	-5.22413	2.75013
H	-1.85778	-5.35907	3.44830
Li	-0.07384	-4.31227	1.19700
