44
5_0.553
C	0.83562	-1.71330	1.54564
O	1.13427	-3.01309	0.95763
C	2.39946	-3.47969	1.38285
C	2.62602	-4.82232	0.73356
C	2.90600	-4.81926	-0.74872
O	1.69603	-4.49871	-1.40636
C	1.88065	-4.47693	-2.85198
C	2.57113	-5.96371	1.43781
H	0.47855	-1.86250	2.59948
H	1.76402	-1.09681	1.51728
H	2.43518	-3.56697	2.49552
H	3.20234	-2.76629	1.07713
H	2.35432	-5.94858	2.52128
H	2.72910	-6.93969	0.94418
H	3.28533	-5.81522	-1.08201
H	3.69310	-4.06412	-0.98804
H	2.22898	-5.48889	-3.19102
H	2.63099	-3.68914	-3.09527
H	0.91595	-4.22990	-3.33888
Li	-0.24213	-4.17135	-0.51009
C	-0.24227	-1.03579	0.73185
C	0.00964	0.04115	-0.02904
H	1.02194	0.47243	-0.08683
H	-0.78931	0.52221	-0.61598
C	-1.62134	-1.64577	0.82782
O	-1.62207	-2.93733	0.15235
C	-2.93754	-3.32524	-0.19161
C	-2.84649	-4.66242	-0.88386
C	-2.51111	-5.85166	-0.01853
O	-1.14914	-5.73922	0.34430
C	-0.74156	-6.85800	1.18490
C	-3.04404	-4.78633	-2.20574
H	-2.36967	-0.97291	0.33022
H	-1.87871	-1.81327	1.89950
H	-3.41211	-2.56570	-0.85854
H	-3.57202	-3.41030	0.72339
H	-3.27855	-3.90282	-2.82667
H	-2.96304	-5.77206	-2.69861
H	-2.69640	-6.80592	-0.56805
H	-3.15887	-5.85802	0.89108
H	-0.89569	-7.81523	0.61896
H	-1.35501	-6.83578	2.11548
H	0.32963	-6.74564	1.44693
Li	0.25927	-4.22614	-0.28332
