15
97__Drive:____3.00___3.00                                                         
O	0.00000	0.00000	0.00000
C	0.00000	-0.00000	1.42108
H	0.00000	1.06917	1.74171
H	0.85149	-0.64529	1.74156
H	-0.95625	-0.47510	1.74155
C	1.27119	0.89312	-1.86085
C	1.10264	0.55852	-0.57210
H	2.23777	1.33925	-2.15290
H	1.94033	0.74872	0.12122
O	0.37634	0.74716	-2.87722
C	0.71927	1.42761	-4.07676
H	0.72978	2.51736	-3.83543
H	1.66157	0.96255	-4.45083
H	-0.09975	1.22505	-4.80546
Li	-1.63874	-0.64422	-1.94192
