35
10_0.221
O	1.82981	-3.08856	0.00758
C	3.17181	-3.49398	-0.22628
C	1.74868	-1.72016	0.38225
H	2.29630	-1.61960	1.34968
H	2.10962	-1.12695	-0.49066
H	3.53459	-2.91018	-1.10456
H	3.71458	-3.38002	0.74209
H	3.13719	-4.57469	-0.49801
Li	0.04579	-4.46550	-0.16210
C	0.04042	0.01103	1.10557
C	-0.48569	0.78730	0.14713
C	-0.71218	0.03839	-1.15606
C	-0.59505	-1.44996	-0.69435
C	0.26170	-1.41350	0.61500
C	0.44478	0.43295	2.50225
C	0.32074	0.43467	-2.22022
H	-0.70911	1.86155	0.25676
H	-1.73880	0.24738	-1.53692
H	-0.11040	-2.07872	-1.47734
H	-0.14905	-2.13285	1.36066
H	-0.07081	-0.18639	3.26901
H	1.54079	0.32132	2.65399
H	0.18560	1.49660	2.69985
H	0.18386	-0.15327	-3.15531
H	0.22769	1.50994	-2.49306
H	1.36550	0.27357	-1.87696
O	-1.81250	-3.38010	-0.04159
C	-3.04859	-4.01595	0.25467
C	-1.99086	-2.01379	-0.38923
H	-2.60155	-1.99773	-1.32343
H	-2.39901	-1.50372	0.51487
H	-3.45661	-3.51554	1.16402
H	-3.65688	-3.98584	-0.68043
H	-2.81204	-5.07751	0.49981
Li	0.18969	-4.42744	0.00131
