33
1_0.054
O	1.16029	-3.76691	0.43771
C	1.72865	-4.93955	-0.12963
C	1.44788	-2.61151	-0.33806
H	2.55637	-2.48155	-0.32089
H	0.95051	-2.75676	-1.32581
H	1.22774	-5.09461	-1.11393
H	2.83539	-4.79695	-0.11889
H	1.46485	-5.78391	0.54892
Li	-0.02689	-3.74086	2.36058
C	1.13667	-0.07198	-0.31453
C	0.79368	-1.42252	0.38140
C	-0.79366	-1.42255	0.38137
C	-1.13667	-0.07197	-0.31453
C	-0.67152	1.03174	0.64442
C	0.67144	1.03179	0.64440
C	0.00003	0.04407	-1.35036
H	2.17045	0.04540	-0.71353
H	1.16767	-1.40306	1.43269
H	-1.16766	-1.40305	1.43271
H	-2.17048	0.04534	-0.71350
H	-1.34233	1.67438	1.23836
H	1.34237	1.67446	1.23833
H	-0.00001	1.02382	-1.88424
H	0.00001	-0.77587	-2.10299
O	-1.16029	-3.76694	0.43771
C	-1.72866	-4.93958	-0.12962
C	-1.44786	-2.61155	-0.33808
H	-2.55635	-2.48157	-0.32092
H	-0.95048	-2.75681	-1.32583
H	-1.22774	-5.09466	-1.11391
H	-2.83540	-4.79696	-0.11889
H	-1.46488	-5.78393	0.54895
Li	0.02688	-3.74087	2.36059
