32
3_0.095
O	2.03959	-2.31026	-0.14541
C	3.10098	-3.21656	0.12310
C	2.45560	-0.95716	-0.02070
H	3.23714	-0.78891	-0.79967
H	2.73682	-0.80555	1.04798
H	3.37981	-3.07550	1.19368
H	3.88216	-3.03438	-0.65272
H	2.68754	-4.24308	-0.01211
Li	-0.04741	-2.94688	-0.73416
C	0.67015	-0.35237	-1.73446
C	-0.67011	-0.35229	-1.73444
C	-1.23161	-0.08736	-0.34416
C	0.00003	-0.42465	0.54514
C	1.23164	-0.08732	-0.34411
C	-0.00000	0.30888	1.89266
H	1.30745	-0.48833	-2.62420
H	-1.30743	-0.48838	-2.62423
H	-1.49462	0.99322	-0.26328
H	0.00002	-1.52384	0.73701
H	1.49453	0.99329	-0.26328
H	0.89566	0.04777	2.49908
H	0.00003	1.41365	1.75914
H	-0.89573	0.04773	2.49913
O	-2.03959	-2.31029	-0.14542
C	-3.10099	-3.21657	0.12311
C	-2.45557	-0.95718	-0.02070
H	-3.23714	-0.78892	-0.79966
H	-2.73677	-0.80556	1.04798
H	-3.37979	-3.07550	1.19371
H	-3.88219	-3.03437	-0.65269
H	-2.68758	-4.24310	-0.01210
Li	0.04738	-2.94694	-0.73423
