42
5_0.131
O	2.10974	-3.32510	0.03749
C	3.18219	-3.99955	0.68167
C	2.47231	-2.87446	-1.26057
H	2.69854	-3.78542	-1.86464
H	3.28215	-2.11985	-1.12324
H	3.99148	-3.24662	0.82985
H	3.40927	-4.90218	0.06602
H	2.80302	-4.32575	1.67806
Li	0.06475	-3.03694	0.95535
C	0.69524	-1.02741	-1.01278
C	1.40487	-0.10046	-0.24519
C	0.69713	0.84299	0.50039
C	-0.70258	0.84772	0.50832
C	-1.42512	-0.10055	-0.23754
C	-0.70761	-1.03255	-1.01302
C	-1.24161	-2.18615	-1.84873
C	-0.00072	-3.11727	-1.88916
C	1.23512	-2.17920	-1.84816
C	1.23963	1.90402	1.44196
C	0.01033	2.19013	2.34248
C	-1.22974	1.91187	1.45452
H	2.50624	-0.11600	-0.21751
H	-2.52634	-0.11697	-0.20405
H	-1.46707	-1.80911	-2.87402
H	0.00129	-3.77467	-2.78880
H	1.45873	-1.80124	-2.87348
H	2.11103	1.54093	2.03306
H	1.53869	2.81071	0.86825
H	0.01561	3.22818	2.74772
H	-1.52901	2.82015	0.88349
H	-2.09747	1.55377	2.05403
H	0.01246	1.48626	3.20768
H	0.00088	-3.77514	-0.98948
O	-2.11054	-3.33579	0.03728
C	-3.17982	-4.01486	0.68188
C	-2.47555	-2.88676	-1.26066
H	-2.69806	-3.79870	-1.86462
H	-3.28860	-2.13566	-1.12304
H	-3.99231	-3.26545	0.83034
H	-3.40322	-4.91848	0.06633
H	-2.79886	-4.33940	1.67813
Li	-0.06647	-3.03876	0.95435
