22
7_0.278
O	1.38025	-2.97588	-0.30747
C	2.56193	-3.75246	-0.16405
C	1.28097	-1.97427	0.69573
H	2.14719	-1.28589	0.54835
H	1.19200	-2.50627	1.67205
H	2.47370	-4.29402	0.80689
H	3.42241	-3.05536	-0.30168
H	2.55992	-4.49523	-0.99547
Li	-0.13784	-3.27700	-1.95435
C	0.00043	-1.21781	0.42904
C	0.00001	0.04837	-0.01702
H	0.94359	0.58504	-0.20602
H	-0.94403	0.58440	-0.20600
O	-1.37819	-2.97682	-0.30747
C	-2.55934	-3.75421	-0.16405
C	-1.27959	-1.97514	0.69573
H	-2.14629	-1.28736	0.54835
H	-1.19026	-2.50708	1.67205
H	-2.47075	-4.29571	0.80689
H	-3.42030	-3.05769	-0.30168
H	-2.55683	-4.49698	-0.99547
Li	0.14010	-3.27690	-1.95435
