28
9_0.203
O	1.46740	-3.54059	-0.33704
C	2.62826	-4.35251	-0.22222
C	1.25813	-2.75013	0.82523
H	1.08126	-3.46007	1.66823
H	2.12504	-2.05211	0.89843
H	3.49936	-3.65907	-0.15810
H	2.44792	-5.05127	0.62897
H	2.70183	-4.94144	-1.16600
Li	0.10147	-3.53583	-2.13751
C	-0.00002	-1.94868	0.58472
C	-0.00004	-0.65260	0.19579
C	-1.25280	0.12420	-0.14326
C	1.25284	0.18262	0.05118
H	-1.52430	0.82055	0.68104
H	-2.13315	-0.52253	-0.34324
H	-1.10237	0.73558	-1.06068
H	1.52426	0.31010	-1.02031
H	2.13322	-0.24723	0.57421
H	1.10237	1.19799	0.48056
O	-1.46740	-3.54063	-0.33704
C	-2.62824	-4.35258	-0.22223
C	-1.25815	-2.75017	0.82523
H	-1.08127	-3.46009	1.66823
H	-2.12509	-2.05217	0.89843
H	-3.49936	-3.65916	-0.15810
H	-2.44788	-5.05134	0.62897
H	-2.70180	-4.94152	-1.16600
Li	-0.10147	-3.53583	-2.13751
