19

O          4.11600        5.76300        7.43800
O          4.17000        3.03600        3.15400
O          2.98400        3.74400        5.75100
H          5.70600        7.46400        7.91400
H          4.31500        6.93600        8.22800
H          2.98800        2.45800        5.13900
H          2.90400        2.61500        3.64800
H          2.94000        5.03900        7.75200
H          3.04200        3.65300        7.16400
O          5.75800        5.08600        2.24400
O          5.70400        7.81300        6.52900
O          6.89000        7.10500        3.93200
H          4.16800        3.38500        1.76900
H          5.55900        3.91400        1.45400
H          6.88600        8.39100        4.54400
H          6.97000        8.23400        6.03400
H          6.93400        5.81100        1.93000
H          6.83200        7.19600        2.51800
Li         4.98520        5.54504        4.94289
