46
117_4.799
O	4.81512	-1.17592	-0.14920
C	6.17955	-0.80062	-0.27947
H	6.27189	-0.25964	-1.25144
H	6.45237	-0.25489	0.65430
H	6.76824	-1.74584	-0.33273
C	3.95957	-0.04336	-0.08141
C	2.66094	-0.29343	0.70456
H	3.70946	0.29387	-1.11384
H	4.51486	0.79681	0.39705
H	2.10959	0.67028	0.80671
H	2.91100	-0.62263	1.73967
O	1.80069	-1.24946	0.10022
Li	2.51976	-2.95660	-1.19442
C	0.43772	-1.01506	0.42673
C	-0.09511	0.21023	-0.33599
H	0.36886	-0.80598	1.52119
H	-1.15479	0.42641	-0.07219
H	-0.05109	0.05936	-1.43783
H	0.49442	1.12503	-0.10192
O	-6.97693	-4.46706	-1.77058
C	-8.24598	-4.24404	-2.36997
H	-8.52158	-5.18809	-2.89791
H	-8.92174	-3.87648	-1.56226
H	-8.10669	-3.43418	-3.12335
C	-7.02839	-5.49529	-0.79112
C	-5.97661	-5.34499	0.32149
H	-6.90487	-6.48562	-1.28730
H	-8.04346	-5.50006	-0.32987
H	-6.16282	-6.11985	1.10129
H	-6.10544	-4.35811	0.82331
O	-4.63707	-5.47054	-0.13581
Li	-3.84349	-2.20721	-2.23190
C	-3.77415	-5.95702	0.88300
C	-2.31042	-6.11016	0.43494
H	-3.82315	-5.27762	1.76515
H	-4.15122	-6.94768	1.22882
H	-1.73263	-6.60263	1.25152
H	-2.26045	-6.79624	-0.44207
O	-0.35146	-2.16122	0.13903
C	-0.13779	-3.20080	1.08395
C	-1.35030	-4.12942	1.26893
H	0.74799	-3.80362	0.77704
H	0.11977	-2.74333	2.06759
H	-1.13891	-4.83702	2.10425
H	-2.23410	-3.52774	1.58398
O	-1.67976	-4.87951	0.10785
