46
123_4.839
O	4.08994	-2.80404	0.01347
C	5.46687	-2.98965	-0.28501
H	5.58533	-2.80555	-1.37954
H	6.03804	-2.34310	0.42202
H	5.70035	-4.05819	-0.06926
C	3.67055	-1.46923	-0.23480
C	2.49315	-1.01538	0.64524
H	3.39388	-1.36196	-1.30910
H	4.53393	-0.78484	-0.06346
H	2.30780	0.06980	0.46862
H	2.77279	-1.11472	1.71962
O	1.28859	-1.72934	0.40322
Li	1.21122	-3.86532	-0.33102
C	0.14095	-0.94567	0.69991
C	-0.07008	0.12957	-0.38005
H	0.30718	-0.43436	1.67829
H	-0.94980	0.77191	-0.15039
H	-0.24161	-0.32292	-1.38233
H	0.81336	0.80147	-0.46544
O	-5.36301	-6.39881	-2.71934
C	-5.90767	-6.91944	-3.92424
H	-6.97943	-7.15261	-3.71717
H	-5.23993	-7.75393	-4.24346
H	-5.85351	-6.10171	-4.68003
C	-5.38834	-7.35713	-1.67042
C	-4.27803	-7.16042	-0.62388
H	-6.38226	-7.32856	-1.16691
H	-5.29037	-8.37562	-2.11340
H	-4.30013	-8.01582	0.09094
H	-3.28368	-7.19736	-1.12613
O	-4.39108	-5.94911	0.11042
Li	-3.46468	-3.01901	-2.38537
C	-3.82080	-6.06186	1.40708
C	-3.91904	-4.77337	2.24184
H	-2.75206	-6.36474	1.31631
H	-4.33502	-6.88627	1.95400
H	-3.55657	-4.98411	3.27499
H	-4.98852	-4.47505	2.33973
O	-1.01227	-1.76799	0.81438
C	-1.01164	-2.51385	2.02390
C	-1.77853	-3.84435	1.93231
H	-1.44315	-1.89230	2.84223
H	0.04405	-2.72505	2.31387
H	-1.62925	-4.41297	2.87970
H	-1.34166	-4.46948	1.11946
O	-3.17312	-3.68750	1.70919
