46
128_4.860
O	4.26956	-2.49546	0.30773
C	5.56951	-2.96312	-0.02530
H	6.29429	-2.30135	0.50636
H	5.61806	-3.00908	-1.13871
H	5.65314	-3.99643	0.38471
C	4.04848	-1.17158	-0.15887
C	2.57194	-0.85685	-0.45464
H	4.44006	-0.44496	0.59004
H	4.64397	-1.01538	-1.08848
H	2.50480	0.15314	-0.92218
H	2.18262	-1.57827	-1.20985
O	1.73896	-0.88316	0.69632
Li	2.13358	-2.16842	2.51287
C	0.61769	-0.02141	0.55711
C	-0.47366	-0.57005	-0.37813
H	0.17882	0.18013	1.56157
H	0.96814	0.96177	0.16501
H	-1.25425	0.21327	-0.52049
H	-0.03674	-0.76371	-1.38508
O	-7.27014	-5.59413	0.15848
C	-8.68264	-5.67910	0.02762
H	-9.03232	-6.41039	0.79499
H	-8.89230	-5.90156	-1.04509
H	-9.08867	-4.67085	0.27541
C	-6.63746	-6.83440	-0.12557
C	-5.20303	-6.69011	-0.66252
H	-6.62797	-7.46420	0.79393
H	-7.25024	-7.38529	-0.87669
H	-4.82847	-7.69541	-0.96622
H	-5.21349	-6.06724	-1.58680
O	-4.29436	-6.12859	0.27463
Li	-5.24899	-2.30280	0.62788
C	-2.96250	-6.56957	0.04895
C	-1.94024	-5.98755	1.04038
H	-2.65856	-6.31159	-0.99184
H	-2.93741	-7.68223	0.11630
H	-0.95149	-6.47230	0.86554
H	-2.23961	-6.25267	2.08079
O	-1.09702	-1.75359	0.10135
C	-0.25774	-2.89055	-0.04759
C	-1.02760	-4.21281	-0.20784
H	0.42615	-2.96319	0.82946
H	0.39260	-2.74108	-0.94083
H	-0.30147	-5.02813	-0.43403
H	-1.70541	-4.14321	-1.08994
O	-1.78210	-4.57900	0.93928
