46
143_4.966
O	4.30004	-2.68881	-0.45476
C	5.64729	-3.14078	-0.46592
H	6.23201	-2.39146	-1.05119
H	5.93459	-3.31825	0.59715
H	5.65461	-4.11314	-1.01117
C	4.16679	-1.44052	0.21101
C	2.78425	-1.22290	0.84971
H	4.37857	-0.61408	-0.50616
H	4.94600	-1.37351	1.00569
H	2.80571	-0.27993	1.44429
H	2.57596	-2.04485	1.57317
O	1.72382	-1.14396	-0.09290
Li	1.73592	-2.18475	-2.09891
C	0.64729	-0.35070	0.38781
C	-0.52692	-0.23524	-0.59941
H	0.28073	-0.77014	1.35315
H	1.02950	0.67176	0.61514
H	-1.26858	0.49228	-0.19466
H	-0.16201	0.19205	-1.56202
O	-3.89749	-7.47327	2.22402
C	-3.94609	-8.40971	3.29182
H	-4.09044	-9.41554	2.82987
H	-4.72089	-8.04239	4.00520
H	-2.94956	-8.37897	3.79065
C	-5.12059	-7.43115	1.50187
C	-5.40194	-6.07240	0.83752
H	-5.11974	-8.23081	0.72550
H	-5.95665	-7.67192	2.19914
H	-6.42550	-6.09164	0.39581
H	-5.41112	-5.27379	1.61502
O	-4.47198	-5.72909	-0.18060
Li	-1.06178	-4.87420	1.63939
C	-5.05190	-4.88058	-1.16191
C	-4.08209	-4.48077	-2.28722
H	-5.44818	-3.96245	-0.66980
H	-5.93060	-5.40011	-1.61043
H	-4.64616	-3.91719	-3.06657
H	-3.69220	-5.39873	-2.78491
O	-1.18739	-1.46809	-0.85066
C	-2.26313	-1.31439	-1.76631
C	-3.38919	-2.34567	-1.57874
H	-1.87351	-1.37573	-2.80872
H	-2.68864	-0.29036	-1.65031
H	-4.23642	-2.08181	-2.25382
H	-3.78457	-2.27864	-0.53877
O	-2.99147	-3.68325	-1.84705
