46
148_5.001
O	3.45935	-3.73129	-0.19285
C	4.64910	-4.50329	-0.28234
H	5.17949	-4.16903	-1.20585
H	5.17561	-4.39508	0.69502
H	4.33346	-5.56496	-0.40911
C	3.73819	-2.34654	-0.03805
C	2.64207	-1.57379	0.71567
H	3.89416	-1.88603	-1.04094
H	4.70169	-2.23452	0.51175
H	2.99293	-0.53041	0.89293
H	2.49190	-2.02911	1.72190
O	1.39900	-1.52669	0.02878
Li	0.68146	-3.12670	-1.39691
C	0.65358	-0.36427	0.36401
C	-0.70256	-0.26829	-0.35598
H	0.49160	-0.33358	1.46628
H	1.26094	0.53592	0.11112
H	-1.16359	0.72074	-0.12699
H	-0.53998	-0.29052	-1.45844
O	-2.35568	-8.42618	1.20530
C	-1.80706	-9.69419	1.53792
H	-2.56002	-10.21094	2.17974
H	-1.51394	-10.17862	0.57690
H	-0.88972	-9.49841	2.14041
C	-3.54566	-8.54982	0.43855
C	-3.80790	-7.35632	-0.49607
H	-4.41495	-8.68307	1.12323
H	-3.48265	-9.48000	-0.17297
H	-4.68947	-7.58768	-1.13831
H	-2.94225	-7.22819	-1.18644
O	-4.05017	-6.13498	0.18867
Li	-0.59067	-5.00082	1.74375
C	-4.87538	-5.25965	-0.56769
C	-5.16643	-3.92159	0.13346
H	-4.39963	-5.06475	-1.55655
H	-5.84187	-5.77329	-0.78046
H	-5.90813	-3.35052	-0.47229
H	-5.64987	-4.11618	1.11874
O	-1.61752	-1.29320	0.00683
C	-2.85430	-1.16543	-0.68112
C	-3.59084	-2.50049	-0.88570
H	-3.51445	-0.45838	-0.12752
H	-2.66385	-0.70204	-1.67720
H	-4.48414	-2.32497	-1.52942
H	-2.93385	-3.20480	-1.44667
O	-4.01396	-3.11264	0.32489
