46
165_5.121
O	4.46495	-2.43979	-0.19606
C	5.83834	-2.79394	-0.28475
H	6.23687	-2.30449	-1.20536
H	6.30159	-2.52867	0.69464
H	5.87615	-3.90031	-0.41645
C	4.28968	-1.03885	-0.03523
C	3.00367	-0.65727	0.71797
H	4.29321	-0.54811	-1.03591
H	5.16687	-0.62935	0.51796
H	3.00499	0.44271	0.90021
H	3.00400	-1.14126	1.72202
O	1.81111	-1.00396	0.02742
Li	1.64089	-2.74251	-1.40645
C	0.73476	-0.13969	0.36467
C	-0.58048	-0.47575	-0.35915
H	0.56948	-0.16697	1.46654
H	1.02550	0.90784	0.11702
H	-1.33194	0.31482	-0.12790
H	-0.41732	-0.44026	-1.46118
O	-5.06939	-7.37183	-2.36299
C	-5.58510	-8.17375	-3.41677
H	-5.56326	-9.22987	-3.05615
H	-6.57058	-7.73504	-3.70051
H	-4.88036	-8.06826	-4.27412
C	-5.88642	-7.43526	-1.20210
C	-5.82171	-6.17062	-0.32847
H	-5.59594	-8.32235	-0.59308
H	-6.94292	-7.60303	-1.51644
H	-6.57410	-6.25823	0.48970
H	-6.12030	-5.28457	-0.93520
O	-4.54440	-5.93821	0.24920
Li	-2.15219	-4.81947	-2.70011
C	-4.64011	-5.22265	1.47316
C	-3.28049	-4.94645	2.13788
H	-5.17016	-4.25810	1.29750
H	-5.27560	-5.80551	2.17999
H	-3.45478	-4.48920	3.13974
H	-2.75397	-5.91160	2.32122
O	-1.12355	-1.73966	-0.00300
C	-1.72293	-1.71338	1.28514
C	-2.86304	-2.73148	1.45941
H	-0.94259	-1.89371	2.06021
H	-2.12160	-0.68935	1.47381
H	-3.34888	-2.56348	2.44880
H	-3.64743	-2.54588	0.68958
O	-2.43848	-4.08546	1.38359
