46
178_5.218
O	4.31855	-2.41079	0.29893
C	5.62989	-2.84666	-0.03258
H	6.33760	-2.17773	0.51294
H	5.68601	-2.87564	-1.14621
H	5.73252	-3.88379	0.36322
C	4.07281	-1.08522	-0.15020
C	2.59184	-0.79688	-0.45068
H	4.44475	-0.36147	0.61140
H	4.67045	-0.90343	-1.07375
H	2.50652	0.21810	-0.90424
H	2.22209	-1.51530	-1.21849
O	1.75275	-0.85690	0.69456
Li	2.16315	-2.15964	2.49510
C	0.61468	-0.01661	0.56060
C	-0.45946	-0.57424	-0.38914
H	0.16574	0.16138	1.56506
H	0.94696	0.97912	0.18471
H	-1.25529	0.19473	-0.52524
H	-0.01263	-0.74438	-1.39599
O	-4.17501	-8.01116	-2.00420
C	-4.38512	-9.03618	-2.96580
H	-4.44547	-9.99749	-2.40174
H	-5.26677	-8.72778	-3.57551
H	-3.48108	-9.05404	-3.61789
C	-5.26777	-7.90018	-1.10263
C	-5.45125	-6.48757	-0.52160
H	-5.13644	-8.62969	-0.27030
H	-6.20215	-8.19587	-1.63429
H	-6.39117	-6.46304	0.07765
H	-5.59097	-5.75917	-1.35363
O	-4.37394	-6.06248	0.30177
Li	-1.30461	-5.38652	-2.10552
C	-4.79733	-5.12917	1.28611
C	-3.66408	-4.63874	2.20367
H	-5.27475	-4.25493	0.78615
H	-5.58890	-5.60324	1.91210
H	-4.10157	-4.00684	3.01144
H	-3.19209	-5.51229	2.71012
O	-1.06095	-1.77717	0.06957
C	-1.97835	-1.53909	1.12831
C	-3.11109	-2.57667	1.21232
H	-1.42714	-1.51213	2.09662
H	-2.42561	-0.52666	0.99376
H	-3.84217	-2.25087	1.98855
H	-3.66765	-2.59772	0.24684
O	-2.66434	-3.88814	1.52812
