46
192_5.330
O	4.55600	-1.95669	0.06789
C	5.93275	-1.90518	-0.28053
H	5.97897	-1.81238	-1.39191
H	6.38884	-1.09407	0.33449
H	6.37640	-2.88249	0.02091
C	3.87724	-0.75808	-0.28117
C	2.66198	-0.45138	0.61092
H	3.55167	-0.81365	-1.34564
H	4.59575	0.09209	-0.21696
H	2.26350	0.55529	0.34445
H	2.98893	-0.38748	1.67459
O	1.61254	-1.40256	0.49616
Li	1.92970	-3.57666	-0.03321
C	0.34409	-0.82651	0.77622
C	-0.10576	0.07511	-0.38640
H	0.43796	-0.19755	1.69377
H	-1.08612	0.55755	-0.17335
H	-0.21703	-0.49981	-1.33288
H	0.62686	0.89120	-0.57736
O	-4.05578	-7.57808	-1.82743
C	-4.12568	-8.64724	-2.76096
H	-4.58553	-9.51151	-2.22478
H	-4.64686	-8.25073	-3.66391
H	-3.07553	-8.90527	-3.03193
C	-5.34618	-7.16626	-1.39787
C	-5.41722	-5.68821	-0.97709
H	-5.67694	-7.80981	-0.55014
H	-6.07200	-7.34099	-2.22601
H	-6.47993	-5.42292	-0.76870
H	-5.09445	-5.04415	-1.82760
O	-4.63685	-5.38107	0.17005
Li	-0.84571	-5.55957	-0.95605
C	-5.17144	-4.28137	0.89402
C	-4.35951	-3.91029	2.14693
H	-5.24254	-3.39518	0.22187
H	-6.21500	-4.52738	1.20004
H	-4.90881	-3.12196	2.71261
H	-4.29550	-4.79408	2.82307
O	-0.62283	-1.83804	1.02342
C	-1.78203	-1.31711	1.65911
C	-3.06479	-2.11053	1.35619
H	-1.61704	-1.28485	2.76090
H	-1.92549	-0.26076	1.33243
H	-3.93563	-1.57009	1.79520
H	-3.23440	-2.13571	0.25485
O	-3.04981	-3.43847	1.86179
