46
338_6.219
O	3.76302	-3.46201	-0.70493
C	4.94042	-4.25221	-0.61112
H	5.73571	-3.59354	-0.18736
H	4.66397	-5.17337	-0.04613
H	5.22021	-4.53528	-1.65248
C	3.31319	-3.03013	0.57193
C	1.79507	-2.79257	0.64680
H	3.84959	-2.09560	0.85671
H	3.59617	-3.79749	1.32972
H	1.51594	-2.57188	1.70347
H	1.25857	-3.72958	0.37012
O	1.34058	-1.72775	-0.17712
Li	2.34840	-1.09860	-2.09961
C	0.16459	-1.12239	0.34231
C	-0.07025	0.24848	-0.31537
H	0.30336	-0.96769	1.43918
H	-0.97310	0.75091	0.09895
H	-0.21600	0.15704	-1.41498
H	0.79140	0.93365	-0.15010
O	-4.29751	-8.01478	2.41746
C	-4.54907	-8.99661	3.41356
H	-5.63315	-9.25327	3.34422
H	-3.80433	-9.81176	3.25537
H	-4.35306	-8.51180	4.39813
C	-4.52593	-8.51901	1.10872
C	-3.67887	-7.83276	0.02323
H	-5.60664	-8.41675	0.85607
H	-4.30439	-9.61173	1.10220
H	-3.83357	-8.36388	-0.94483
H	-2.59778	-7.94225	0.27147
O	-3.98458	-6.45682	-0.15727
Li	-2.61475	-4.56191	3.03735
C	-3.71042	-6.02390	-1.48267
C	-4.02594	-4.53822	-1.72745
H	-2.63980	-6.22034	-1.72218
H	-4.30894	-6.64160	-2.19218
H	-3.89373	-4.31505	-2.81183
H	-5.09871	-4.34348	-1.49596
O	-0.96202	-1.96631	0.14788
C	-1.20640	-2.21255	-1.23012
C	-1.89671	-3.55935	-1.50643
H	-1.82456	-1.38562	-1.64993
H	-0.23480	-2.18627	-1.77644
H	-1.94348	-3.72158	-2.60854
H	-1.27443	-4.38701	-1.09398
O	-3.21196	-3.64838	-0.97589
