46
382_6.559
O	3.84668	-3.12109	0.20289
C	4.77524	-4.11619	-0.20581
H	4.55465	-5.02820	0.39874
H	4.69819	-4.18972	-1.31613
H	5.78897	-3.73853	0.06355
C	2.50697	-3.49918	-0.08254
C	1.56243	-2.30730	-0.31493
H	2.11418	-4.12714	0.75027
H	2.50304	-4.14524	-0.99124
H	0.56944	-2.69260	-0.64459
H	1.95072	-1.68384	-1.15332
O	1.37685	-1.49111	0.83340
Li	2.92375	-1.22717	2.45972
C	0.11144	-0.84467	0.82350
C	-0.01019	0.08100	-0.39934
H	0.02696	-0.22211	1.74632
H	-0.98538	0.61778	-0.40981
H	0.06696	-0.48662	-1.35359
H	0.79021	0.85462	-0.40709
O	-3.97040	-7.30213	-2.83181
C	-4.20992	-8.00760	-4.04194
H	-5.26757	-8.36221	-4.00240
H	-3.40209	-8.77133	-4.13294
H	-4.10561	-7.26837	-4.86988
C	-4.08685	-8.14726	-1.69539
C	-3.22844	-7.70014	-0.49959
H	-5.15562	-8.20413	-1.38441
H	-3.78944	-9.18168	-1.98637
H	-3.28932	-8.47621	0.29865
H	-2.15853	-7.65134	-0.80824
O	-3.61865	-6.44902	0.04967
Li	-2.57191	-3.68017	-2.57911
C	-3.29917	-6.35552	1.43113
C	-3.70312	-5.01642	2.07171
H	-2.20538	-6.51838	1.56991
H	-3.81096	-7.18414	1.97394
H	-3.52428	-5.07356	3.17077
H	-4.79848	-4.85745	1.94030
O	-0.94025	-1.80025	0.82989
C	-1.08663	-2.41661	2.10187
C	-1.66392	-3.84117	2.03784
H	-1.73577	-1.78179	2.74826
H	-0.08926	-2.45342	2.59891
H	-1.63535	-4.28843	3.05877
H	-1.01021	-4.47826	1.39820
O	-2.99822	-3.89724	1.55229
