46
442_6.953
O	4.30495	-2.45703	0.09846
C	5.33963	-3.34433	-0.30357
H	5.32941	-4.19641	0.41738
H	5.16952	-3.56673	-1.38327
H	6.29944	-2.78786	-0.19434
C	3.02356	-3.06495	0.01068
C	1.87973	-2.06714	-0.23985
H	2.81989	-3.63584	0.94598
H	3.03779	-3.81265	-0.81630
H	0.93575	-2.63553	-0.41018
H	2.07918	-1.50205	-1.17966
O	1.67467	-1.15117	0.82702
Li	3.30661	-0.45655	2.22764
C	0.32586	-0.70874	0.89193
C	-0.06147	0.02802	-0.40196
H	0.22999	0.00437	1.74550
H	-1.10749	0.40648	-0.35892
H	0.01525	-0.63624	-1.29168
H	0.59785	0.90612	-0.58486
O	-2.94128	-8.13869	-1.52534
C	-2.77235	-9.28569	-2.34714
H	-3.20309	-10.14878	-1.78550
H	-3.20979	-9.03441	-3.34195
H	-1.67406	-9.43890	-2.46171
C	-4.31372	-7.84831	-1.29879
C	-4.59806	-6.35839	-1.04184
H	-4.68199	-8.45057	-0.43630
H	-4.90124	-8.17995	-2.18647
H	-5.70127	-6.20494	-0.99131
H	-4.23736	-5.75682	-1.90808
O	-4.01301	-5.86150	0.15401
Li	-0.10965	-5.68275	-0.48204
C	-4.75335	-4.77482	0.69277
C	-4.15798	-4.20173	1.99039
H	-4.83030	-3.96535	-0.06948
H	-5.79553	-5.11627	0.89390
H	-4.85851	-3.43852	2.40265
H	-4.08880	-5.00932	2.75548
O	-0.55072	-1.80326	1.12191
C	-1.83274	-1.37133	1.55679
C	-2.97164	-2.33575	1.18327
H	-1.81857	-1.22383	2.66144
H	-2.04474	-0.37218	1.10969
H	-3.94570	-1.86718	1.45677
H	-2.99117	-2.47676	0.07778
O	-2.88057	-3.60331	1.81910
