46
499_7.520
O	3.02072	-3.94427	-0.58576
C	3.58255	-5.24924	-0.55608
H	4.26076	-5.28626	0.32969
H	2.72924	-5.96650	-0.59561
H	4.19100	-5.35737	-1.48394
C	2.22482	-3.68523	0.56258
C	1.09646	-2.66841	0.31845
H	2.87699	-3.32415	1.39113
H	1.77670	-4.64468	0.91159
H	0.45644	-2.61372	1.22979
H	0.43934	-3.03349	-0.50452
O	1.56028	-1.36172	0.00751
Li	3.52378	-0.92995	-1.02485
C	0.63072	-0.36266	0.40379
C	-0.59964	-0.26139	-0.51419
H	0.29858	-0.55994	1.44922
H	1.15049	0.62361	0.42071
H	-1.21218	0.61614	-0.20129
H	-0.26797	-0.05576	-1.55824
O	-1.61806	-8.56423	-1.83606
C	-1.11727	-9.72013	-2.49376
H	-2.00188	-10.34816	-2.75636
H	-0.34085	-10.15893	-1.82384
H	-0.62996	-9.36868	-3.43283
C	-2.27564	-8.89147	-0.61961
C	-2.23303	-7.76761	0.43008
H	-3.33609	-9.16021	-0.83280
H	-1.80099	-9.80445	-0.19027
H	-2.66544	-8.14862	1.38456
H	-1.17236	-7.50459	0.64953
O	-2.93952	-6.59654	0.04446
Li	-0.82022	-4.88812	-2.83000
C	-3.42596	-5.87807	1.16982
C	-4.19919	-4.59983	0.80246
H	-2.57369	-5.61696	1.83887
H	-4.09453	-6.54715	1.76020
H	-4.64071	-4.16598	1.72983
H	-5.05651	-4.86195	0.14016
O	-1.42192	-1.42023	-0.49989
C	-2.19299	-1.50653	0.69059
C	-2.54877	-2.94734	1.09583
H	-3.12869	-0.91327	0.56933
H	-1.62379	-1.02810	1.52143
H	-3.04835	-2.92908	2.09245
H	-1.61274	-3.53848	1.22528
O	-3.40049	-3.60890	0.17052
