46
501_7.536
O	4.03682	-2.90955	-0.51353
C	4.92852	-4.01594	-0.52947
H	5.48112	-3.99636	0.44015
H	4.31647	-4.91741	-0.76802
H	5.64843	-3.83538	-1.36130
C	3.07049	-3.02439	0.52196
C	1.74292	-2.31103	0.21307
H	3.49543	-2.62308	1.47094
H	2.86577	-4.10544	0.70248
H	1.00955	-2.54863	1.01861
H	1.31368	-2.71821	-0.73156
O	1.86255	-0.89906	0.10686
Li	3.73905	0.16293	-0.57021
C	0.65387	-0.23845	0.45604
C	-0.43942	-0.33520	-0.62196
H	0.26775	-0.65551	1.41476
H	0.87633	0.83696	0.64890
H	-1.30233	0.30266	-0.31917
H	-0.05620	0.08954	-1.57856
O	-3.03806	-7.81779	2.37463
C	-3.04977	-8.69741	3.49071
H	-3.02010	-9.73536	3.08122
H	-3.92300	-8.40497	4.12008
H	-2.11100	-8.50491	4.06033
C	-4.19181	-7.98056	1.56124
C	-4.59562	-6.70841	0.79620
H	-4.02015	-8.81033	0.83721
H	-5.04321	-8.29890	2.20694
H	-5.56737	-6.89038	0.28068
H	-4.77547	-5.88077	1.52080
O	-3.63858	-6.29176	-0.16801
Li	-0.53520	-4.88576	1.84816
C	-4.24305	-5.58129	-1.23997
C	-3.24528	-5.10863	-2.31130
H	-4.79748	-4.70297	-0.83582
H	-5.00452	-6.23858	-1.72093
H	-3.81288	-4.66774	-3.16372
H	-2.69673	-5.98795	-2.72148
O	-0.90669	-1.65822	-0.84677
C	-1.91373	-1.70002	-1.84845
C	-2.90403	-2.86576	-1.68382
H	-1.43442	-1.75923	-2.85291
H	-2.47999	-0.73977	-1.82730
H	-3.72000	-2.75510	-2.43556
H	-3.38959	-2.80182	-0.68257
O	-2.31085	-4.14761	-1.83959
