46
540_7.692
O	4.60919	1.56944	-0.08973
C	6.00882	1.78752	0.02408
H	6.26797	1.65152	1.10123
H	6.49895	1.12009	-0.72323
H	6.19205	2.84928	-0.26213
C	4.25094	0.24033	0.26294
C	2.98117	-0.26735	-0.44182
H	4.11412	0.17448	1.36708
H	5.09919	-0.43803	0.01103
H	2.84109	-1.34669	-0.19983
H	3.12109	-0.20937	-1.54610
O	1.80287	0.43857	-0.07777
Li	1.77646	2.60228	0.57427
C	-0.64269	0.37352	0.19494
C	0.64271	-0.37355	-0.19494
H	-0.75866	1.27481	-0.45059
H	-0.55550	0.74005	1.24402
H	0.55546	-0.74000	-1.24401
H	0.75868	-1.27484	0.45059
O	-5.04712	-6.51066	2.41543
C	-5.22431	-7.52907	3.39059
H	-6.31588	-7.76073	3.41755
H	-4.51837	-8.35146	3.12702
H	-4.92189	-7.09096	4.37010
C	-5.41375	-6.95362	1.11597
C	-4.65987	-6.23856	-0.01853
H	-6.51111	-6.81896	0.97494
H	-5.22035	-8.04927	1.04325
H	-4.92069	-6.72446	-0.98757
H	-3.56274	-6.38025	0.11777
O	-4.94836	-4.85029	-0.11199
Li	-3.22919	-3.12200	3.00734
C	-4.79393	-4.36651	-1.43915
C	-5.09579	-2.86567	-1.59108
H	-3.75672	-4.57392	-1.79035
H	-5.47332	-4.94108	-2.11108
H	-5.06424	-2.59889	-2.67322
H	-6.13596	-2.65956	-1.24772
O	-1.80291	-0.43851	0.07777
C	-2.18592	-0.62048	-1.27848
C	-2.93214	-1.94008	-1.54035
H	-2.82181	0.23593	-1.60160
H	-1.27167	-0.59027	-1.91597
H	-3.08969	-2.05391	-2.63825
H	-2.29289	-2.79697	-1.22500
O	-4.19136	-2.02538	-0.88740
