46
541_7.696
O	0.11498	4.85731	0.33030
C	0.42863	6.24145	0.40284
H	1.21394	6.35151	1.18839
H	0.67299	6.56948	-0.63487
H	-0.49745	6.76268	0.73977
C	1.23256	4.08305	-0.08295
C	0.85095	2.78609	-0.81711
H	1.86033	3.83635	0.80431
H	1.86965	4.70406	-0.75499
H	1.77878	2.30434	-1.20469
H	0.23012	3.03335	-1.70919
O	0.15661	1.85046	-0.00364
Li	-1.15899	2.42491	1.74184
C	-0.37185	-0.51350	0.43429
C	0.37188	0.51351	-0.43431
H	-1.46440	-0.29332	0.41621
H	-0.04213	-0.41160	1.49420
H	0.04208	0.41157	-1.49416
H	1.46443	0.29333	-0.41623
O	0.30170	-8.77427	2.17426
C	0.53577	-9.74815	3.18236
H	1.08593	-10.58824	2.69502
H	-0.45221	-9.96809	3.65104
H	1.19927	-9.27126	3.94076
C	-0.53156	-9.27576	1.13819
C	-1.35707	-8.19023	0.42624
H	0.09286	-9.81730	0.39050
H	-1.22707	-10.03148	1.57215
H	-2.06178	-8.68099	-0.28489
H	-1.98783	-7.65419	1.17269
O	-0.56925	-7.24841	-0.28900
Li	1.25885	-5.01090	2.41734
C	-1.27657	-6.69589	-1.39066
C	-0.46347	-5.66889	-2.19742
H	-2.21685	-6.22125	-1.02631
H	-1.58616	-7.52454	-2.06941
H	-1.04664	-5.37690	-3.10176
H	0.47290	-6.14592	-2.56891
O	-0.15667	-1.85047	0.00367
C	-0.88939	-2.15008	-1.17641
C	-1.25960	-3.63677	-1.31573
H	-0.30285	-1.82852	-2.06791
H	-1.82479	-1.54331	-1.18092
H	-1.92665	-3.76127	-2.20044
H	-1.85334	-3.95628	-0.42818
O	-0.13704	-4.49495	-1.46629
