46
569_7.895
O	3.33863	3.29100	0.62902
C	4.57762	3.98552	0.58403
H	4.48777	4.74946	-0.22482
H	5.37554	3.21174	0.49052
H	4.68925	4.50558	1.56378
C	3.08032	2.59194	-0.58087
C	2.19723	1.34524	-0.40025
H	2.60164	3.28300	-1.31265
H	4.05269	2.28330	-1.03076
H	2.14287	0.79784	-1.37008
H	2.67999	0.65026	0.32522
O	0.87596	1.63716	0.03364
Li	0.32680	3.43143	1.29321
C	0.05264	-0.65335	0.40116
C	-0.05265	0.65336	-0.40119
H	-0.11741	-0.44017	1.48196
H	1.08665	-1.06043	0.31386
H	-1.08663	1.06040	-0.31380
H	0.11740	0.44019	-1.48199
O	-2.05605	-8.77816	-0.72240
C	-1.57859	-10.11176	-0.83655
H	-2.25168	-10.63258	-1.55878
H	-1.50611	-10.51607	0.20048
H	-0.55518	-10.04939	-1.27426
C	-3.36880	-8.73132	-0.18044
C	-3.67871	-7.43178	0.58236
H	-4.11241	-8.86731	-0.99944
H	-3.50195	-9.59599	0.51078
H	-4.67740	-7.52809	1.06867
H	-2.94016	-7.30001	1.40670
O	-3.68105	-6.27216	-0.23894
Li	0.08914	-5.57086	-1.22208
C	-4.54099	-5.26346	0.27321
C	-4.57730	-3.98604	-0.58329
H	-4.23084	-5.00511	1.31207
H	-5.57363	-5.67728	0.34798
H	-5.35735	-3.30092	-0.17672
H	-4.89558	-4.24313	-1.62009
O	-0.87595	-1.63719	-0.03358
C	-2.19714	-1.34551	0.40075
C	-3.07994	-2.59241	0.58136
H	-2.68021	-0.65061	-0.32447
H	-2.14267	-0.79835	1.37070
H	-4.05228	-2.28413	1.03157
H	-2.60100	-3.28359	1.31297
O	-3.33852	-3.29134	-0.62856
