46
596_8.208
O	3.46885	3.15655	0.61326
C	4.74081	3.78967	0.58584
H	4.71755	4.51951	-0.25838
H	5.50323	2.97601	0.55693
H	4.84173	4.34783	1.54558
C	3.22124	2.41619	-0.57409
C	2.27287	1.22158	-0.37350
H	2.80353	3.09496	-1.35317
H	4.19328	2.04237	-0.97230
H	2.22744	0.63390	-1.31994
H	2.69469	0.53841	0.39962
O	0.95235	1.59428	-0.00398
Li	0.44515	3.46751	1.15416
C	0.00632	-0.63623	0.43097
C	-0.00633	0.63625	-0.43100
H	-0.19246	-0.36656	1.49410
H	1.02191	-1.09472	0.40139
H	-1.02190	1.09469	-0.40133
H	0.19245	0.36658	-1.49413
O	-5.34454	-6.96136	2.18668
C	-6.09372	-7.62095	3.19819
H	-7.03504	-7.97977	2.71748
H	-5.41546	-8.37840	3.65687
H	-6.34748	-6.85046	3.96291
C	-4.96977	-7.84944	1.14260
C	-3.67246	-7.44574	0.42098
H	-5.79957	-7.92110	0.40198
H	-4.84193	-8.87121	1.57015
H	-3.39290	-8.25178	-0.29687
H	-2.84074	-7.38223	1.16028
O	-3.76923	-6.21752	-0.28708
Li	-3.92400	-3.34773	2.43561
C	-2.88240	-6.17575	-1.39660
C	-2.95082	-4.86312	-2.19601
H	-1.83857	-6.34071	-1.04250
H	-3.12055	-7.02586	-2.07762
H	-2.31503	-4.96154	-3.10664
H	-3.99293	-4.70235	-2.55728
O	-0.95235	-1.59431	0.00404
C	-0.54274	-2.25902	-1.18324
C	-1.11072	-3.68173	-1.32478
H	-0.83952	-1.65107	-2.06897
H	0.57087	-2.31192	-1.19807
H	-0.64962	-4.16743	-2.21621
H	-0.80694	-4.29219	-0.44308
O	-2.52441	-3.72303	-1.46281
