32
146_4.339
O	3.62271	-3.37868	-0.22562
C	5.00256	-3.71611	-0.26618
H	5.43921	-3.17582	-1.13987
H	5.41558	-3.49854	0.74685
H	5.05871	-4.81372	-0.45309
C	3.42465	-1.98959	-0.00102
C	2.10005	-1.65880	0.70802
H	3.47059	-1.44717	-0.97357
H	4.26989	-1.60222	0.61434
H	2.08063	-0.56989	0.94690
H	2.05772	-2.19463	1.68447
O	0.94568	-1.97893	-0.05632
Li	0.86314	-3.64146	-1.58493
C	-0.15493	-1.14259	0.27297
C	0.05195	0.26969	-0.30117
H	-0.21784	-1.06507	1.38487
H	-0.78818	0.94786	-0.03004
H	0.12233	0.25543	-1.41183
H	0.98667	0.73468	0.08520
O	-3.84389	-3.37521	-0.68944
C	-5.02189	-4.16130	-0.57170
H	-5.77882	-3.52845	-0.04971
H	-4.71938	-5.12224	-0.09289
H	-5.37444	-4.36770	-1.60897
C	-3.30406	-3.03835	0.58113
C	-1.78155	-2.81799	0.56930
H	-3.80867	-2.12240	0.96662
H	-3.54485	-3.85539	1.30059
H	-1.42940	-2.67489	1.61748
H	-1.27634	-3.73698	0.19170
O	-1.37047	-1.70082	-0.20671
Li	-2.49739	-0.92942	-2.00740
