29
172_4.98
O	3.50620	-3.05510	0.62836
C	4.59214	-3.92548	0.34086
H	5.37316	-3.30789	-0.16362
H	4.16793	-4.79421	-0.21548
H	4.98695	-4.27999	1.32131
C	2.92354	-2.52798	-0.55566
C	1.43355	-2.17417	-0.40908
H	3.49012	-1.62318	-0.87585
H	3.03799	-3.27579	-1.37471
H	1.03228	-1.88107	-1.40720
H	0.86559	-3.08102	-0.09699
O	1.18280	-1.12056	0.51085
Li	2.48993	-0.66468	2.29721
C	0.00001	-0.40395	0.18417
H	0.00003	-0.16891	-0.90562
H	-0.00004	0.57286	0.72145
O	-3.50620	-3.05506	0.62836
C	-4.59215	-3.92543	0.34086
H	-5.37316	-3.30784	-0.16363
H	-4.16795	-4.79417	-0.21547
H	-4.98697	-4.27994	1.32131
C	-2.92354	-2.52795	-0.55566
C	-1.43355	-2.17416	-0.40908
H	-3.49010	-1.62315	-0.87586
H	-3.03799	-3.27576	-1.37471
H	-1.03227	-1.88107	-1.40720
H	-0.86559	-3.08101	-0.09698
O	-1.18279	-1.12054	0.51085
Li	-2.48991	-0.66465	2.29721
