32
173_4.994
O	4.01976	-2.88230	0.33639
C	5.07589	-3.74425	-0.06501
H	4.84587	-4.75146	0.35751
H	5.16601	-3.64644	-1.17247
H	6.00582	-3.35474	0.41074
C	2.77071	-3.28889	-0.20566
C	1.77515	-2.13295	-0.40415
H	2.31471	-4.06217	0.45487
H	2.95077	-3.78291	-1.18886
H	0.87500	-2.51928	-0.93672
H	2.22790	-1.36351	-1.07149
O	1.35973	-1.52011	0.80874
Li	2.62911	-1.42500	2.67612
C	0.06033	-0.95576	0.69779
C	0.04089	0.14213	-0.37982
H	-0.20702	-0.49234	1.67763
H	-0.96324	0.61554	-0.46243
H	0.30105	-0.26262	-1.38343
H	0.76798	0.95305	-0.14974
O	-3.41626	-3.59438	0.01205
C	-4.72488	-4.06207	-0.28508
H	-4.88103	-3.90439	-1.37900
H	-5.41691	-3.55012	0.42426
H	-4.73032	-5.15624	-0.07160
C	-3.28450	-2.20098	-0.23355
C	-2.22586	-1.51371	0.64604
H	-3.03816	-2.03620	-1.30796
H	-4.27117	-1.71177	-0.05943
H	-2.27090	-0.41336	0.47179
H	-2.47677	-1.67136	1.72054
O	-0.89947	-1.96064	0.40071
Li	-0.38026	-4.03213	-0.33878
