29
247_6.18
O	3.35483	-3.22714	0.59381
C	4.55120	-3.96786	0.39501
H	5.39502	-3.24159	0.47505
H	4.42692	-4.52644	-0.56243
H	4.61953	-4.69774	1.23492
C	3.16388	-2.24951	-0.41961
C	1.68686	-1.90787	-0.68117
H	3.71698	-1.32105	-0.14713
H	3.62149	-2.62078	-1.36614
H	1.62435	-1.22714	-1.56201
H	1.13543	-2.83496	-0.96185
O	1.03830	-1.28850	0.42110
Li	1.60774	-1.63560	2.58044
C	-0.02444	-0.44328	0.00227
H	0.32512	0.20011	-0.83841
H	-0.30068	0.24317	0.83613
O	-3.72314	-2.79337	-0.55979
C	-4.77303	-3.73299	-0.37453
H	-4.33890	-4.74205	-0.57264
H	-5.20569	-3.53531	0.63437
H	-5.54278	-3.51042	-1.14964
C	-2.66963	-2.98703	0.37395
C	-1.88601	-1.70381	0.69958
H	-1.96858	-3.76156	-0.01441
H	-3.09856	-3.39725	1.31782
H	-1.16216	-1.92114	1.51932
H	-2.58573	-0.93198	1.09586
O	-1.17390	-1.17073	-0.40855
Li	-1.81442	-1.42129	-2.56133
