32
255_6.249
O	4.68358	-1.15931	-0.66018
C	6.05902	-1.50505	-0.56999
H	6.52749	-0.77574	0.13326
H	6.10061	-2.58867	-0.30886
H	6.49334	-1.35959	-1.58637
C	4.02092	-1.29704	0.58928
C	2.51975	-1.60927	0.46389
H	4.15771	-0.36535	1.18546
H	4.51241	-2.11414	1.16717
H	2.10780	-1.81493	1.47936
H	2.38322	-2.54559	-0.12520
O	1.76482	-0.56290	-0.13146
Li	2.60158	0.90088	-1.63635
C	-0.41638	0.56286	-0.31683
C	0.41639	-0.56288	0.31685
H	-0.39836	0.45856	-1.42645
H	0.04925	1.54757	-0.08011
H	-0.04927	-1.54753	0.08006
H	0.39837	-0.45859	1.42648
O	-4.68362	-0.03337	0.66012
C	-6.05905	-0.37915	0.56993
H	-6.52749	0.34996	-0.13354
H	-6.10060	-1.46285	0.30910
H	-6.49343	-0.23342	1.58625
C	-4.02089	-0.17143	-0.58927
C	-2.51972	-0.48360	-0.46371
H	-4.15766	0.76010	-1.18571
H	-4.51233	-0.98868	-1.16697
H	-2.10771	-0.68953	-1.47910
H	-2.38321	-1.41976	0.12564
O	-1.76484	0.56294	0.13141
Li	-2.60171	2.02711	1.63585
