32
26_2.373
O	3.97688	-2.95762	-0.16521
C	5.38159	-3.14126	-0.27730
H	5.69374	-2.65255	-1.23105
H	5.83011	-2.77142	0.67465
H	5.55579	-4.23942	-0.35814
C	3.62983	-1.58330	-0.06506
C	2.32366	-1.32827	0.70670
H	3.54823	-1.14672	-1.08728
H	4.46080	-1.04015	0.44251
H	2.19024	-0.22902	0.83716
H	2.40830	-1.75751	1.73186
O	1.16882	-1.85550	0.06826
Li	1.18649	-3.67131	-1.27711
C	-0.00000	-1.11679	0.39600
C	0.00001	0.23990	-0.32952
H	-0.00002	-0.92783	1.49627
H	-0.89565	0.84519	-0.06367
H	-0.00002	0.11441	-1.43541
H	0.89568	0.84513	-0.06367
O	-3.97688	-2.95765	-0.16520
C	-5.38158	-3.14130	-0.27730
H	-5.69373	-2.65261	-1.23105
H	-5.83011	-2.77146	0.67465
H	-5.55577	-4.23946	-0.35812
C	-3.62983	-1.58333	-0.06507
C	-2.32367	-1.32828	0.70670
H	-3.54823	-1.14677	-1.08729
H	-4.46081	-1.04017	0.44249
H	-2.19025	-0.22902	0.83713
H	-2.40831	-1.75750	1.73186
O	-1.16882	-1.85551	0.06826
Li	-1.18647	-3.67135	-1.27707
