29
28_2.405
O	4.03068	-2.21826	-0.39433
C	5.42070	-2.46404	-0.23026
H	5.56046	-2.82966	0.81506
H	5.94946	-1.53080	-0.53626
H	5.68748	-3.28169	-0.93956
C	3.56927	-1.19221	0.47376
C	2.35381	-0.42093	-0.06892
H	3.31659	-1.63266	1.46590
H	4.40235	-0.47313	0.65286
H	2.13350	0.43240	0.61406
H	2.60917	0.02661	-1.05728
O	1.18280	-1.21532	-0.19903
Li	1.20252	-3.44008	-0.59598
C	0.00001	-0.43812	-0.07174
H	0.00004	0.36356	-0.84647
H	-0.00005	0.07456	0.91821
O	-4.03069	-2.21819	-0.39433
C	-5.42072	-2.46395	-0.23026
H	-5.56049	-2.82956	0.81506
H	-5.94946	-1.53069	-0.53626
H	-5.68751	-3.28159	-0.93956
C	-3.56927	-1.19215	0.47376
C	-2.35379	-0.42089	-0.06892
H	-3.31660	-1.63259	1.46590
H	-4.40233	-0.47305	0.65286
H	-2.13347	0.43244	0.61406
H	-2.60914	0.02665	-1.05729
O	-1.18279	-1.21530	-0.19903
Li	-1.20255	-3.44006	-0.59598
