32
46_2.818
O	3.77642	-3.33841	-0.70686
C	4.81803	-4.30084	-0.61593
H	4.34892	-5.24810	-0.25741
H	5.62300	-3.84401	0.00656
H	5.20286	-4.45531	-1.65076
C	3.19699	-3.06523	0.56156
C	2.60414	-1.65064	0.68072
H	2.40471	-3.81904	0.77662
H	3.97688	-3.19703	1.34741
H	2.27936	-1.48294	1.73408
H	3.39845	-0.89656	0.47387
O	1.49772	-1.41885	-0.18030
Li	1.20639	-2.45105	-2.16957
C	0.61004	-0.44436	0.35038
C	-0.60584	-0.15864	-0.54779
H	0.25955	-0.77180	1.35643
H	1.17319	0.50493	0.50813
H	-1.18148	0.69298	-0.11586
H	-0.25545	0.17689	-1.55129
O	-3.51658	-3.47513	-0.32932
C	-4.65008	-4.26346	0.00713
H	-5.52973	-3.78858	-0.48948
H	-4.65899	-4.35386	1.11884
H	-4.48262	-5.27183	-0.43780
C	-3.62226	-2.15287	0.18030
C	-2.26457	-1.48735	0.46403
H	-4.20076	-1.52517	-0.53630
H	-4.21550	-2.17913	1.12398
H	-2.44080	-0.50742	0.96588
H	-1.68940	-2.11079	1.18713
O	-1.47919	-1.26920	-0.69994
Li	-1.58339	-2.55663	-2.55444
