32
93_3.519
O	3.71624	-3.41726	-0.64647
C	4.81741	-4.31039	-0.55051
H	4.52965	-5.09594	0.18842
H	5.71698	-3.68781	-0.33295
H	4.93610	-4.78176	-1.55378
C	3.46047	-2.75911	0.58669
C	2.81064	-1.37383	0.42708
H	2.80974	-3.40335	1.22206
H	4.42284	-2.64489	1.13801
H	2.75355	-0.88452	1.42732
H	3.46541	-0.72679	-0.20139
O	1.50668	-1.41428	-0.13621
Li	0.79761	-3.01237	-1.56827
C	0.71158	-0.31724	0.29222
C	-0.71152	-0.31727	-0.29217
H	0.65572	-0.31302	1.40534
H	1.22157	0.63030	0.00023
H	-1.22161	0.63023	-0.00024
H	-0.65573	-0.31301	-1.40538
O	-3.71626	-3.41722	0.64647
C	-4.81745	-4.31034	0.55049
H	-4.52968	-5.09591	-0.18841
H	-5.71700	-3.68774	0.33289
H	-4.93618	-4.78169	1.55376
C	-3.46045	-2.75910	-0.58669
C	-2.81060	-1.37383	-0.42708
H	-2.80971	-3.40336	-1.22202
H	-4.42280	-2.64488	-1.13805
H	-2.75347	-0.88453	-1.42733
H	-3.46537	-0.72676	0.20136
O	-1.50666	-1.41429	0.13625
Li	-0.79767	-3.01237	1.56836
