14
hosta
O	1.51277	-1.41429	0.01157
C	2.89105	-1.09405	0.14302
H	3.06808	-0.87665	1.22344
H	3.10481	-0.28793	-0.59768
H	3.46116	-2.00889	-0.14136
C	0.67964	-0.31724	0.36031
C	-0.67959	-0.31726	-0.36026
H	0.51534	-0.31303	1.46266
H	1.21571	0.63029	0.11952
H	-1.21575	0.63024	-0.11954
H	-0.51536	-0.31300	-1.46270
O	-1.51277	-1.41428	-0.01154
H	-2.89103	-1.09400	-0.14303
Li	-0.73608	-3.43442	0.63906
