29
00000001
K       9.471000    3.877000    7.053000
O       8.423000    1.266000    7.288000
O      11.149000    1.706000    7.651000
O      11.198000    2.969000    5.078000
O       8.436000    2.637000    4.827000
C       9.307000    0.211000    7.455000
H       9.600000   -0.116000    6.569000
H       8.852000   -0.531000    7.923000
C      10.470000    0.628000    8.226000
H      10.176000    0.874000    9.139000
H      11.091000   -0.138000    8.308000
C      12.010000    1.306000    6.601000
H      12.845000    0.947000    6.996000
H      11.608000    0.598000    6.110000
C      12.339000    2.310000    5.715000
H      12.915000    1.925000    5.008000
H      12.869000    2.993000    6.196000
C      10.706000    2.336000    4.009000
H      10.653000    1.368000    4.197000
H      11.254000    2.444000    3.207000
C       9.347000    2.881000    3.740000
H       9.381000    3.828000    3.574000
H       8.989000    2.462000    2.917000
C       7.969000    1.343000    4.887000
H       8.704000    0.710000    4.695000
H       7.261000    1.212000    4.207000
C       7.433000    1.084000    6.204000
H       7.091000    0.156000    6.234000
H       6.666000    1.692000    6.364000
