76
15_0.057
O	1.06746	2.12325	1.59878
O	1.28922	-0.87344	-2.49545
O	0.00000	0.00000	0.00000
H	2.64116	3.85132	2.02925
H	1.23711	3.34459	2.31931
H	0.02561	-1.32267	-0.52748
H	0.00299	-1.26182	-2.02767
O	2.91844	1.11384	-3.46946
O	2.69665	4.11059	0.62578
O	3.98586	3.23715	-1.86968
H	4.10819	1.81716	-3.78097
H	3.98590	3.23708	-3.28779
Li	2.03727	1.74538	-0.83951
C	-1.41629	0.54743	3.94232
C	-0.17710	1.34992	3.51178
C	-0.10971	1.44109	1.97163
C	-0.03275	-0.00785	1.39189
C	-1.16767	-0.92108	1.89990
C	-1.29167	-0.89535	3.43051
C	-1.34673	2.25856	1.51560
C	-2.62446	1.91392	2.23586
C	-2.65964	1.16700	3.34805
H	-1.49662	0.55549	5.05507
H	0.74421	0.86762	3.91204
H	-0.21721	2.37182	3.95518
H	0.92299	-0.45244	1.75727
H	-2.13284	-0.61871	1.43475
H	-0.98227	-1.96860	1.56679
H	-2.17515	-1.49534	3.75069
H	-0.39716	-1.37823	3.88722
H	-1.49755	2.14352	0.42018
H	-1.15532	3.34253	1.68451
H	-3.55978	2.34140	1.83563
H	-3.62289	0.95522	3.84302
C	1.32129	-1.70365	-6.17637
C	1.17179	-1.96905	-4.66901
C	1.33051	-0.65246	-3.87761
C	2.74614	-0.06211	-4.17579
C	3.02774	0.09520	-5.68444
C	2.74172	-1.19587	-6.46556
C	0.14592	0.26230	-4.28552
C	-0.17251	0.25406	-5.75816
C	0.33124	-0.64839	-6.61133
H	1.12700	-2.64600	-6.74114
H	1.93182	-2.71384	-4.33845
H	0.17447	-2.42243	-4.46334
H	3.49133	-0.79533	-3.78632
H	2.42041	0.93205	-6.09696
H	4.09302	0.38557	-5.83778
H	2.87155	-1.01606	-7.55819
H	3.48339	-1.97775	-6.18182
H	0.33837	1.30616	-3.95499
H	-0.77346	-0.06284	-3.74776
H	-0.88903	1.00977	-6.12319
H	0.05460	-0.61620	-7.67910
C	5.58488	6.56475	-1.23263
C	5.42511	5.13672	-1.78048
C	4.04571	4.56551	-1.38561
C	3.94248	4.55161	0.17343
C	4.23839	5.92583	0.80908
C	5.55776	6.52713	0.30260
C	2.97823	5.43549	-2.09977
C	3.26095	6.91527	-2.07847
C	4.44442	7.42963	-1.71665
H	6.55041	6.99453	-1.59010
H	6.24050	4.48691	-1.38740
H	5.53387	5.14436	-2.88981
H	4.72878	3.85220	0.54377
H	3.39753	6.62599	0.60395
H	4.28692	5.82234	1.91794
H	5.69098	7.55415	0.71553
H	6.41432	5.92048	0.67703
H	1.97467	5.24475	-1.66112
H	2.90696	5.12897	-3.16800
H	2.45529	7.58737	-2.42046
H	4.60169	8.52176	-1.73129
