35
39_0.107
O	-1.37391	-1.44945	0.00000
O	-1.94916	-6.39814	0.98571
O	-2.97110	-3.82696	-0.01276
H	-3.72351	-4.84939	0.63289
H	-3.15876	-6.19145	0.26585
O	0.79898	-6.39307	0.98555
O	1.37391	-1.44344	-0.00000
O	2.39584	-4.01462	0.99846
H	2.12324	-6.33257	1.48545
H	2.90080	-5.30591	0.70076
Li	-0.20369	-3.77984	0.47797
C	-3.49029	-2.56914	0.25400
C	-2.67825	-1.48095	-0.46928
H	-3.48335	-2.37019	1.35061
H	-4.55482	-2.50057	-0.07043
H	-3.17962	-0.49649	-0.31876
H	-2.69215	-1.67515	-1.56674
C	0.10199	-7.52373	1.34890
C	-1.25351	-7.52602	0.62137
H	-0.06796	-7.52778	2.45039
H	0.64072	-8.47056	1.11123
H	-1.78948	-8.47424	0.85969
H	-1.08361	-7.53045	-0.48022
C	2.58796	-1.61601	0.65667
C	3.17485	-3.01779	0.41732
H	2.47911	-1.44125	1.75201
H	3.31305	-0.85344	0.28798
H	4.20074	-3.05864	0.85213
H	3.29157	-3.18939	-0.67779
C	0.67830	-0.31576	0.36412
C	-0.67710	-0.31874	-0.36363
H	0.50817	-0.31108	1.46558
H	1.21392	0.63258	0.12550
H	-1.21624	0.62795	-0.12640
H	-0.50705	-0.31495	-1.46518
