31
8_0.069
O	1.06746	2.12325	1.59878
O	1.28922	-0.87344	-2.49545
O	0.00000	0.00000	0.00000
H	2.64116	3.85132	2.02925
H	1.23711	3.34459	2.31931
H	0.02561	-1.32267	-0.52748
H	0.00299	-1.26182	-2.02767
O	2.91844	1.11384	-3.46946
O	2.69665	4.11059	0.62578
O	3.98586	3.23715	-1.86968
H	4.10819	1.81716	-3.78097
H	3.98590	3.23708	-3.28779
Li	2.03727	1.74538	-0.83951
C	-0.03490	-0.00675	1.38620
C	-0.08452	1.42919	1.93603
H	0.86013	-0.53007	1.79515
H	-0.92362	-0.56706	1.75959
H	-0.21502	1.38768	3.04257
H	-0.98415	1.94991	1.53371
C	2.74491	-0.05621	-4.17450
C	1.35631	-0.63156	-3.84667
H	3.52958	-0.79341	-3.88639
H	2.82922	0.07622	-5.27838
H	1.18618	-1.54080	-4.46917
H	0.57114	0.10217	-4.14250
C	3.93630	4.55136	0.17421
C	4.02670	4.53263	-1.36143
H	4.76055	3.93517	0.60209
H	4.10511	5.59347	0.53295
H	4.98254	5.01501	-1.67264
H	3.20744	5.15567	-1.78919
