64
3_0.228
C	2.24779	-2.14956	0.00000
O	1.95159	-3.53982	-0.09646
C	3.03125	-4.35467	0.35011
C	2.63583	-5.80266	0.20028
C	2.32425	-6.56242	1.26255
C	2.58101	-6.34715	-1.20559
O	1.42546	-5.82019	-1.85088
C	1.27324	-6.30161	-3.18323
C	-0.00770	-5.74292	-3.75085
C	-0.00568	-4.78963	-4.69610
C	-1.29109	-6.29613	-3.18332
O	-1.44121	-5.81407	-1.85087
C	-2.59901	-6.33606	-1.20563
C	-2.65151	-5.79129	0.20031
C	-3.04071	-4.34168	0.35011
O	-1.95756	-3.53145	-0.09644
C	-2.24778	-2.13994	-0.00000
C	-2.34320	-6.55239	1.26254
H	2.34794	-6.14988	2.28378
H	2.01831	-7.61224	1.12870
H	3.26590	-4.11693	1.41605
H	3.94986	-4.14526	-0.24961
H	2.52977	-7.46292	-1.19361
H	3.50342	-6.06003	-1.76605
H	2.44182	-1.93699	1.07869
H	3.12920	-1.89075	-0.63456
H	2.15173	-5.98804	-3.79801
H	1.23807	-7.41777	-3.19255
H	0.94437	-4.38860	-5.08373
H	-0.94803	-4.37737	-5.09069
H	-1.26066	-7.41244	-3.19256
H	-2.16819	-5.97883	-3.79805
H	-3.52021	-6.04497	-1.76607
H	-2.55259	-7.45201	-1.19367
H	-2.04171	-7.60354	1.12866
H	-2.36512	-6.13980	2.28379
H	-3.27433	-4.10287	1.41607
H	-3.95838	-4.12833	-0.24964
H	-3.12816	-1.87732	-0.63452
H	-2.44093	-1.92651	1.07869
Li	-0.00478	-4.36189	-0.87667
C	0.59018	1.15719	-0.06165
C	0.12283	0.84604	1.37277
C	-0.02737	-0.67610	1.62480
C	-0.00665	-1.53114	0.34052
C	1.29349	-1.27902	-0.47655
C	1.73728	0.20067	-0.41432
C	-0.56300	1.08676	-1.09113
C	-1.69721	0.11741	-0.73270
C	-1.27331	-1.34937	-0.54069
H	0.99582	2.19747	-0.07915
H	-0.82886	1.38107	1.59190
H	0.86540	1.25531	2.09670
H	0.80732	-1.01025	2.28299
H	-0.95904	-0.87057	2.20289
H	0.00939	-2.60206	0.65088
H	1.09370	-1.53665	-1.54287
H	2.53858	0.31752	0.35078
H	2.19826	0.49514	-1.38554
H	-0.15450	0.83216	-2.09572
H	-1.00429	2.10552	-1.19435
H	-2.46865	0.16206	-1.53657
H	-2.21357	0.47636	0.18520
H	-1.05580	-1.77552	-1.54820
