58
3_0.188
C	2.24779	-1.56341	-0.00000
O	1.95395	-2.33377	-1.16193
C	3.03467	-3.18369	-1.53442
C	2.64175	-3.94693	-2.77480
C	2.33075	-5.25234	-2.73097
C	2.58871	-3.16351	-4.06296
O	1.43271	-2.33135	-4.03998
C	1.28213	-1.56788	-5.23351
C	0.00062	-0.77807	-5.13827
C	0.00167	0.55224	-4.95786
C	-1.28221	-1.56576	-5.23358
O	-1.43397	-2.32908	-4.03999
C	-2.59131	-3.15934	-4.06299
C	-2.64561	-3.94269	-2.77473
C	-3.03729	-3.17885	-1.53441
O	-1.95520	-2.33067	-1.16191
C	-2.24779	-1.55982	0.00000
C	-2.33671	-5.24858	-2.73093
H	2.35311	-5.81106	-1.78176
H	2.02663	-5.78570	-3.64566
H	3.26826	-3.88422	-0.69625
H	3.95331	-2.58002	-1.73201
H	2.53931	-3.85258	-4.94073
H	3.51100	-2.54365	-4.17502
H	2.44079	-2.28941	0.82588
H	3.12917	-0.90205	-0.17970
H	2.16049	-0.88885	-5.35774
H	1.24880	-2.24029	-6.12453
H	0.95130	1.10442	-4.87425
H	-0.94111	1.11582	-4.87280
H	-1.24993	-2.23829	-6.12455
H	-2.15945	-0.88540	-5.35779
H	-3.51264	-2.53802	-4.17500
H	-2.54306	-3.84845	-4.94073
H	-2.03339	-5.78243	-3.64567
H	-2.35996	-5.80731	-1.78175
H	-3.27198	-3.87898	-0.69619
H	-3.95494	-2.57368	-1.73202
H	-3.12819	-0.89706	-0.17964
H	-2.44197	-2.28550	0.82591
Li	-0.00056	-2.21660	-2.29244
C	-0.66333	0.08755	-0.86363
C	0.67902	0.08399	-0.84507
C	1.24924	-0.65064	0.36190
C	0.00072	-1.45476	0.82596
C	-1.23921	-0.65581	0.33543
C	-1.55208	0.80287	-1.85937
C	1.69249	0.35274	1.44222
H	1.32147	0.58409	-1.58865
H	0.00603	-2.45752	0.34056
H	-0.01488	-1.62120	1.92735
H	-1.54989	0.08922	1.10496
H	-2.20979	0.08612	-2.39833
H	-2.20220	1.54699	-1.34857
H	-0.95484	1.34708	-2.62414
H	2.05517	-0.16625	2.35738
H	2.52150	1.00129	1.08038
H	0.86059	1.02424	1.75161
