56
7_0.267
C	-2.01855	-1.05035	0.00000
O	-2.15405	-1.99337	1.05934
C	-3.51590	-2.31515	1.32557
C	-3.56354	-3.30409	2.46364
C	-3.85300	-4.59943	2.26100
C	-3.24234	-2.77045	3.83768
O	-1.83941	-2.53593	3.91618
C	-1.43431	-2.05270	5.19386
C	0.06664	-1.90330	5.19546
C	0.65724	-0.69782	5.17854
C	0.86854	-3.18085	5.19393
O	0.73490	-3.79718	3.91619
C	1.40942	-5.04945	3.83771
C	1.18460	-5.63031	2.46358
C	1.93682	-4.98660	1.32556
O	1.35643	-3.71327	1.05932
C	2.01855	-3.02824	-0.00000
C	0.33847	-6.65289	2.26097
H	-4.06656	-4.98348	1.25077
H	-3.86234	-5.30877	3.10383
H	-3.98705	-2.74463	0.40829
H	-4.08709	-1.39411	1.59535
H	-3.54646	-3.50224	4.62491
H	-3.80513	-1.82401	4.02454
H	-2.46506	-1.52174	-0.90819
H	-2.53009	-0.09236	0.25906
H	-1.93244	-1.07423	5.40001
H	-1.74628	-2.76400	5.99627
H	0.05079	0.22177	5.16295
H	1.75461	-0.60185	5.16271
H	0.49762	-3.86335	5.99629
H	1.94694	-2.97484	5.40005
H	2.50222	-4.91413	4.02453
H	1.01762	-5.73823	4.62492
H	-0.21636	-7.09500	3.10385
H	0.16585	-7.05707	1.25076
H	1.88621	-5.62207	0.40823
H	3.01466	-4.87342	1.59536
H	3.08912	-2.84537	0.25899
H	1.91974	-3.66996	-0.90822
Li	-0.40892	-2.87402	2.19552
C	0.18043	-0.02828	0.74739
C	1.25749	-0.81503	0.94641
C	1.25218	-1.93021	-0.00962
C	0.16099	-1.80967	-0.78855
C	-0.65964	-0.58140	-0.40366
C	-0.19423	1.22277	1.51237
C	-0.73925	0.40691	-1.58030
H	2.03075	-0.64752	1.71444
H	-0.12358	-2.49543	-1.60360
H	-0.24324	2.10630	0.83889
H	0.54861	1.45102	2.30840
H	-1.18565	1.11189	2.00350
H	0.27222	0.71884	-1.92569
H	-1.29469	1.33102	-1.30527
H	-1.26240	-0.04120	-2.45470
