39
484_*****
O	1.01385	1.29575	-0.45692
C	0.65430	2.26776	0.51540
H	-0.44676	2.42440	0.42027
H	1.05162	1.90562	1.49272
H	1.18050	3.21012	0.23631
Li	2.38468	1.69929	-2.20777
C	0.38942	0.04368	-0.20867
H	-0.62113	0.03548	-0.67942
H	0.23171	-0.07915	0.88809
O	0.47385	-2.31808	-0.42720
C	1.20784	-1.14228	-0.74063
H	2.23839	-1.29172	-0.34090
H	1.25515	-1.08095	-1.85276
C	0.33820	-2.49822	0.97580
C	0.19579	-3.96981	1.40110
H	-0.54222	-1.91980	1.33981
H	1.23104	-2.06138	1.48094
H	0.21256	-4.02699	2.51448
H	1.08030	-4.54663	1.04434
O	-0.99301	-4.58969	0.93021
Li	-0.54877	-5.07658	-2.97341
C	-1.41949	-5.63709	1.79064
C	-2.70517	-6.33991	1.32185
H	-0.60221	-6.38792	1.89297
H	-1.58880	-5.21702	2.80949
H	-3.02914	-7.06150	2.10769
H	-3.52475	-5.59042	1.22757
O	-1.86664	-8.99268	-2.11020
C	-1.60999	-10.14487	-2.90145
H	-2.56260	-10.72528	-2.94110
H	-0.71044	-10.63941	-2.46511
H	-1.36337	-9.78151	-3.92614
C	-2.20513	-9.33443	-0.77308
C	-1.83821	-8.25102	0.25567
H	-3.29679	-9.55041	-0.71131
H	-1.68231	-10.28121	-0.50211
H	-2.02935	-8.64675	1.28037
H	-0.74500	-8.04096	0.19973
O	-2.56067	-7.03826	0.09276
