39
530_*****
O	1.34638	1.01636	-0.26441
C	2.61721	0.69961	0.28708
H	2.46243	0.54620	1.38182
H	3.02334	-0.14987	-0.31089
H	3.26497	1.59389	0.13384
Li	0.83918	2.99697	-1.22744
C	0.42455	-0.05505	-0.11757
H	-0.44052	0.10597	-0.80211
H	0.01597	-0.05092	0.91968
O	0.03304	-2.39333	-0.22672
C	1.05625	-1.42431	-0.40977
H	1.92079	-1.74905	0.21574
H	1.34943	-1.46692	-1.48451
C	-0.43171	-2.42412	1.11577
C	-0.97990	-3.79411	1.55091
H	-1.22029	-1.64842	1.25233
H	0.40800	-2.14009	1.79206
H	-1.21139	-3.76055	2.64107
H	-0.18860	-4.56849	1.42228
O	-2.14892	-4.19276	0.84826
Li	-1.00890	-5.08426	-2.83661
C	-2.96645	-5.05439	1.62831
C	-4.24639	-5.51377	0.90899
H	-2.37423	-5.94632	1.93800
H	-3.25057	-4.52505	2.56760
H	-4.87908	-6.08507	1.62767
H	-4.84280	-4.62200	0.60668
O	-3.30536	-8.55893	-2.15055
C	-3.14668	-9.80111	-2.82233
H	-4.17304	-10.17402	-3.05350
H	-2.49034	-10.43228	-2.17812
H	-2.61584	-9.58303	-3.77811
C	-3.98489	-8.71097	-0.91185
C	-3.61479	-7.64455	0.13338
H	-5.08517	-8.69146	-1.08846
H	-3.75172	-9.71922	-0.49685
H	-4.09988	-7.90561	1.10276
H	-2.51557	-7.66967	0.31624
O	-4.00259	-6.32683	-0.23063
