53
4_0.547
O	-2.54378	-2.21487	-7.77858
C	-2.08062	-2.25713	-6.64845
N	-1.88215	-3.40918	-5.97588
N	-1.67894	-1.15964	-5.97523
O	-0.91588	-7.06392	0.06145
C	-0.81748	-6.01938	-0.56539
N	-0.43850	-4.85437	-0.00146
N	-1.03456	-5.93394	-1.89374
O	-0.07361	2.25919	0.06426
C	-0.16404	1.21435	-0.56324
N	-0.39287	1.16993	-1.89165
N	0.00000	0.00000	0.00000
H	-1.91601	-3.37641	-4.95948
H	-1.71805	-1.18644	-4.95892
H	-0.77622	-3.99193	-0.42274
H	-1.35645	-5.04288	-2.26496
H	-0.86915	0.35126	-2.26333
H	-0.48678	-0.78773	-0.42179
Cl	-2.07761	-2.25859	-2.31392
O	-3.46966	-2.13297	-1.94717
O	-1.88244	-3.46128	-3.09827
O	-1.25941	-2.33287	-1.12022
O	-1.67004	-1.10997	-3.09756
C	0.15334	-2.07345	0.88997
C	-0.56196	-2.93761	1.62575
C	0.30062	-0.60856	1.21214
C	-0.75363	-4.40712	1.35047
H	0.66786	-2.42122	-0.02016
H	-1.07112	-2.55729	2.52735
H	-0.14294	-0.38549	2.20958
H	1.38406	-0.35914	1.28438
H	-1.84665	-4.60730	1.26833
H	-0.39659	-4.97819	2.23822
C	-1.48640	-5.68674	-4.09586
C	-2.53110	-5.60685	-4.93374
C	-1.35950	-6.71156	-2.99813
C	-2.71875	-4.60200	-6.04146
H	-0.65786	-4.96535	-4.18035
H	-3.34802	-6.33916	-4.81915
H	-2.17508	-7.46647	-3.07771
H	-0.40148	-7.26558	-3.12670
H	-3.67630	-4.06080	-5.86339
H	-2.84646	-5.15752	-6.99894
C	-1.08528	0.63991	-4.74089
C	-1.63926	1.63308	-4.02918
C	-1.55379	0.21738	-6.10959
C	-1.22241	2.09436	-2.65608
H	-0.24096	0.06885	-4.32253
H	-2.48756	2.18134	-4.47254
H	-2.31718	0.93179	-6.49462
H	-0.69451	0.26012	-6.81746
H	-2.10436	2.01807	-1.97942
H	-0.96533	3.17704	-2.71448
