119
7_0.535
O	-2.49438	-3.90920	-7.75410
C	-1.79405	-3.66999	-6.78157
N	-1.05221	-4.60848	-6.15879
N	-1.65638	-2.43438	-6.25872
O	1.47766	-7.54572	0.50022
C	1.36515	-6.56217	-0.21646
N	1.47258	-5.29895	0.24352
N	1.16641	-6.63968	-1.54817
O	-1.15857	1.94090	0.06426
C	-0.73165	0.98298	-0.56324
N	-0.91034	0.83329	-1.89165
N	0.00000	0.00000	0.00000
H	-0.85551	-4.47728	-5.16916
H	-1.44358	-2.36072	-5.26654
H	0.96825	-4.56878	-0.25432
H	0.67022	-5.87398	-1.99862
H	-0.93054	-0.11363	-2.26333
H	-0.04437	-0.92493	-0.42179
Cl	-1.22666	-3.30224	-2.21292
O	-2.54454	-3.64631	-1.73032
O	-0.67441	-4.40982	-2.96659
O	-0.35439	-3.00840	-1.09369
O	-1.30593	-2.13737	-3.07102
C	-0.24631	-1.02839	2.31178
C	0.49537	-0.37070	1.13098
C	1.50383	0.66473	1.66390
C	2.45520	0.05461	2.70368
C	1.67538	-0.62727	3.83812
C	0.70511	-1.71424	3.32070
C	1.43390	-2.96258	2.73658
C	2.34334	-3.62894	3.79370
C	3.02922	-4.89657	3.26560
C	2.00554	-5.91096	2.74307
C	1.08124	-5.30238	1.67375
C	0.42656	-4.01597	2.21775
H	-1.00305	-1.74999	1.93364
H	-0.83071	-0.24520	2.84738
H	1.05148	-1.15588	0.56801
H	0.95317	1.51590	2.12650
H	2.09442	1.08847	0.81896
H	3.10976	0.85254	3.12520
H	3.13333	-0.67860	2.21116
H	1.08933	0.14858	4.38312
H	2.38036	-1.04525	4.58988
H	0.09068	-2.06145	4.18498
H	2.07334	-2.64038	1.88554
H	1.74157	-3.88452	4.69600
H	3.13474	-2.92067	4.12558
H	3.63484	-5.36143	4.07820
H	3.74560	-4.62657	2.45672
H	1.38824	-6.27657	3.59610
H	2.53057	-6.80306	2.33004
H	0.26944	-6.03928	1.46194
H	-0.19997	-3.58208	1.40777
H	-0.27112	-4.28726	3.04316
C	-0.22968	-8.32359	-2.84351
C	1.02531	-7.49598	-2.50145
C	2.28243	-8.37333	-2.65313
C	2.35787	-9.03071	-4.03901
C	1.07111	-9.80752	-4.35658
C	-0.19304	-8.92148	-4.26994
C	-0.26939	-7.84585	-5.39593
C	-0.26423	-8.49719	-6.79749
C	-0.39857	-7.46604	-7.92659
C	-1.65674	-6.60742	-7.75417
C	-1.70547	-5.92155	-6.37745
C	-1.54024	-6.97381	-5.26172
H	-1.14442	-7.70799	-2.69979
H	-0.31926	-9.15682	-2.10902
H	1.09937	-6.63806	-3.20940
H	2.27818	-9.16718	-1.87115
H	3.19639	-7.75948	-2.47951
H	3.23227	-9.72115	-4.07822
H	2.53746	-8.25396	-4.81647
H	0.97343	-10.64633	-3.62904
H	1.15269	-10.29179	-5.35441
H	-1.08260	-9.58555	-4.38287
H	0.62018	-7.18253	-5.32075
H	-1.09751	-9.23337	-6.87002
H	0.67982	-9.06393	-6.95773
H	-0.43535	-7.98978	-8.91023
H	0.50585	-6.81658	-7.95146
H	-2.55694	-7.25371	-7.87380
H	-1.70924	-5.84258	-8.56310
H	-2.71248	-5.45282	-6.26282
H	-1.53880	-6.44036	-4.28587
H	-2.43562	-7.63707	-5.25562
C	-3.41094	-0.60893	-6.03131
C	-2.04945	-1.21759	-6.42225
C	-1.61099	-0.66978	-7.79366
C	-1.61136	0.86567	-7.82343
C	-2.97150	1.42983	-7.38551
C	-3.39358	0.93729	-5.98198
C	-2.50696	1.51176	-4.83545
C	-2.55223	3.05640	-4.80934
C	-1.73553	3.65007	-3.65316
C	-2.19150	3.09114	-2.30051
C	-2.15135	1.55316	-2.26630
C	-2.95458	0.98155	-3.45268
H	-3.75237	-1.02840	-5.05979
H	-4.17442	-0.93414	-6.77503
H	-1.28905	-0.92731	-5.66052
H	-2.29836	-1.05140	-8.58334
H	-0.59370	-1.04904	-8.04579
H	-1.37230	1.21972	-8.85315
H	-0.80454	1.25667	-7.16298
H	-3.74272	1.11295	-8.12527
H	-2.95811	2.54089	-7.43237
H	-4.43872	1.28310	-5.79989
H	-1.45280	1.20058	-5.00547
H	-3.60975	3.39747	-4.72638
H	-2.15470	3.47169	-5.76203
H	-1.83848	4.76029	-3.65273
H	-0.65372	3.43613	-3.80904
H	-3.23200	3.43527	-2.09723
H	-1.55765	3.50722	-1.48369
H	-2.64480	1.21772	-1.32242
H	-2.87013	-0.12692	-3.42058
H	-4.03342	1.21860	-3.30580
