71
8_0.43
O	-2.17800	-3.48735	-7.96790
C	-1.59306	-3.32059	-6.90793
N	-0.95048	-4.31164	-6.25688
N	-1.49212	-2.11933	-6.30309
O	1.39954	-7.49415	0.26530
C	1.23292	-6.48549	-0.40440
N	1.29475	-5.24049	0.11042
N	1.01436	-6.51222	-1.73499
O	-0.95777	2.04745	0.06426
C	-0.62922	1.05150	-0.56323
N	-0.82204	0.92051	-1.89165
N	0.00000	0.00000	0.00000
H	-0.86982	-4.23959	-5.24515
H	-1.39701	-2.10530	-5.29023
H	0.75130	-4.51135	-0.34602
H	0.47835	-5.74937	-2.14261
H	-0.93724	-0.01959	-2.26333
H	-0.13704	-0.91580	-0.42179
Cl	-1.30763	-3.15317	-2.31470
O	-2.65010	-3.47588	-1.88841
O	-0.75983	-4.25032	-3.08665
O	-0.46674	-2.92104	-1.15760
O	-1.32597	-1.95884	-3.13493
C	0.18964	0.06564	1.50327
C	1.24965	-0.83947	2.15435
C	0.83044	-2.29725	2.27030
C	0.00300	-2.68093	3.25663
C	1.41591	-3.23002	1.23390
C	0.95428	-4.69541	1.28601
H	0.55430	1.11900	1.52763
H	-0.74294	0.04550	2.11356
H	2.20353	-0.76705	1.58421
H	1.47841	-0.45030	3.17325
H	-0.31739	-3.72715	3.37600
H	-0.38358	-1.94746	3.98240
H	1.18803	-2.82570	0.22263
H	2.52483	-3.20610	1.33539
H	1.21274	-5.13827	2.27587
H	-0.15459	-4.74452	1.18092
C	0.87500	-7.88761	-2.35866
C	1.06266	-8.03189	-3.87877
C	-0.12181	-7.54015	-4.69701
C	-1.21150	-8.31414	-4.83200
C	0.04049	-6.17465	-5.32633
C	-1.16811	-5.62438	-6.10071
H	1.75639	-8.33719	-1.84470
H	-0.01037	-8.48234	-2.03460
H	1.98583	-7.49448	-4.19364
H	1.24316	-9.10507	-4.11884
H	-2.08496	-7.99499	-5.42080
H	-1.26106	-9.30320	-4.34880
H	0.30869	-5.44570	-4.52961
H	0.91315	-6.21473	-6.01729
H	-1.42919	-6.31589	-6.93521
H	-2.05422	-5.57033	-5.42623
C	-2.24645	-0.97888	-6.95916
C	-1.84808	0.46616	-6.61282
C	-2.33256	0.93030	-5.24747
C	-3.60769	1.32068	-5.08517
C	-1.29281	0.92723	-4.14935
C	-1.77283	1.32551	-2.74432
H	-1.91268	-1.20294	-7.99913
H	-3.35758	-1.06804	-6.96344
H	-0.74139	0.57349	-6.67524
H	-2.26049	1.14940	-7.39065
H	-3.99276	1.66824	-4.11440
H	-4.31273	1.30197	-5.93178
H	-0.84008	-0.08754	-4.09135
H	-0.47159	1.61706	-4.44987
H	-2.19045	2.35888	-2.76624
H	-2.59323	0.64388	-2.41972
