71
9_0.441
O	-3.90178	-2.71461	-6.98394
C	-3.04354	-2.71191	-6.11393
N	-2.58750	-3.83627	-5.52504
N	-2.43255	-1.58858	-5.68512
O	-1.23167	-6.96969	0.71579
C	-0.94066	-6.06283	-0.05010
N	-0.33941	-4.92408	0.35068
N	-1.15041	-6.12638	-1.38087
O	-0.60095	2.17905	0.06426
C	-0.44402	1.14211	-0.56324
N	-0.65608	1.04530	-1.89165
N	0.00000	0.00000	0.00000
H	-2.23329	-3.76292	-4.57401
H	-2.08236	-1.57475	-4.72997
H	-0.50933	-4.08144	-0.19377
H	-1.29881	-5.25188	-1.87951
H	-0.92727	0.13782	-2.26334
H	-0.28864	-0.87986	-0.42179
Cl	-2.07787	-2.48550	-2.00134
O	-3.41378	-2.35531	-1.46611
O	-1.95987	-3.73186	-2.73100
O	-1.11216	-2.47513	-0.92098
O	-1.79793	-1.38248	-2.89831
C	1.69939	-0.09858	1.61376
C	0.25605	-0.53532	1.31396
C	0.20433	-2.03018	1.10635
C	-0.50191	-2.87323	1.87490
C	-0.59445	-4.37497	1.72652
C	0.12162	-5.04396	2.91309
H	2.09976	-0.60678	2.51999
H	2.38664	-0.33299	0.76988
H	1.76293	0.99752	1.79726
H	-0.38170	-0.26539	2.18846
H	0.79761	-2.42102	0.26450
H	-1.07931	-2.44914	2.71357
H	-1.67630	-4.64486	1.76863
H	-0.31466	-4.72941	3.88813
H	0.04374	-6.15333	2.86389
H	1.20488	-4.78835	2.93591
C	-0.79556	-8.04703	-2.67975
C	-1.83242	-6.96561	-2.33434
C	-2.04274	-6.05750	-3.52241
C	-3.21487	-5.90830	-4.15806
C	-3.49350	-5.02310	-5.35162
C	-3.76659	-5.90654	-6.58176
H	-1.11817	-8.65777	-3.55309
H	0.19530	-7.60561	-2.93025
H	-0.63981	-8.74777	-1.82896
H	-2.79573	-7.46939	-2.08419
H	-1.15721	-5.49943	-3.86566
H	-4.07959	-6.48730	-3.79251
H	-4.41730	-4.44084	-5.12234
H	-4.62310	-6.59734	-6.41099
H	-4.01561	-5.29372	-7.47709
H	-2.88290	-6.53119	-6.84290
C	-1.76255	0.16501	-7.09147
C	-2.56608	-0.15957	-5.82150
C	-1.84981	0.38292	-4.60779
C	-2.36114	1.30971	-3.78331
C	-1.69954	1.89795	-2.55773
C	-1.35819	3.37392	-2.82840
H	-1.61766	1.26223	-7.21357
H	-0.75303	-0.30399	-7.07383
H	-2.28133	-0.20116	-8.00576
H	-3.56606	0.32783	-5.90408
H	-0.84495	-0.02643	-4.41775
H	-3.36703	1.70325	-4.00678
H	-2.44366	1.85363	-1.72746
H	-2.26429	3.96453	-3.09326
H	-0.90321	3.85799	-1.93518
H	-0.63488	3.48072	-3.66788
