35
urea_macro
O	-1.867663	4.833422	-3.486178
C	-1.485477	3.726039	-3.138141
N	-2.313363	2.670339	-3.000079
N	-0.190342	3.434821	-2.899651
O	-4.249281	-3.339239	0.977981
C	-3.367223	-2.731742	0.389271
N	-2.053566	-2.959154	0.592899
N	-3.616971	-1.803201	-0.556453
O	4.785501	-0.085985	1.405401
C	3.771706	-0.161067	0.727023
N	3.451453	0.742112	-0.222043
N	2.891924	-1.178326	0.826891
Du	-1.019698	2.320334	-2.283366
Du	2.193027	-0.055155	0.078722
Du	-2.169621	-1.626083	-0.127681
Du	1.952133	0.693735	1.321240
Du	-2.565265	-0.932886	1.107544
Du	-1.374449	3.153422	-1.124542
H	-3.295518	2.901697	-3.004606
H	-2.053123	1.948204	-2.332182
H	0.416136	4.238307	-2.829033
H	0.013699	2.692423	-2.234551
H	-1.843736	-3.517127	1.407211
H	-1.408657	-2.188780	0.431791
H	-4.577059	-1.496074	-0.602350
H	-2.930633	-1.063433	-0.687181
H	3.996276	1.591097	-0.196826
H	2.465415	0.879602	-0.431890
H	3.017863	-1.766437	1.637220
H	1.920614	-0.989934	0.589303
Cl	-0.555863	0.726685	0.043519
O	-0.881252	1.473446	1.237070
O	-1.729591	0.608995	-0.798054
O	-0.095407	-0.599341	0.403410
O	0.489472	1.408059	-0.693062
