22
164_3.633
O	1.19091	-1.83212	-0.19682
C	3.55784	-2.02665	0.28914
C	2.36094	-1.42475	0.36900
H	4.40599	-1.55373	0.81412
H	2.29391	-0.49160	0.95495
O	3.86313	-3.17593	-0.37496
H	5.13966	-3.72066	-0.06963
Li	1.75573	-3.83902	-1.78579
C	0.03355	-1.15308	0.27078
C	-0.02041	0.27428	-0.30081
H	0.09094	-1.08493	1.38360
H	-0.90692	0.83201	0.07639
H	-0.07883	0.26982	-1.41226
H	0.88168	0.86189	-0.01771
O	-1.14316	-1.87121	-0.07401
C	-3.53076	-1.84187	0.34415
C	-2.26033	-1.50212	0.61212
H	-4.31833	-1.44927	1.01064
H	-2.07648	-0.84984	1.48351
O	-3.97957	-2.62959	-0.67228
H	-5.38626	-2.60221	-0.87221
Li	-1.87322	-3.67352	-1.83192
