22
175_3.671
O	1.16882	-1.85669	0.01531
C	3.57426	-1.76387	0.30093
C	2.31415	-1.41931	0.60858
H	4.38907	-1.30874	0.89045
H	2.16545	-0.70082	1.43335
O	3.98217	-2.62582	-0.67156
H	5.37576	-2.59727	-0.94830
Li	1.83556	-3.78646	-1.62876
C	-0.00000	-1.12763	0.36398
C	0.00001	0.24920	-0.32254
H	-0.00002	-0.97013	1.46920
H	-0.89565	0.84666	-0.03954
H	-0.00002	0.15530	-1.43156
H	0.89568	0.84660	-0.03954
O	-1.16882	-1.85670	0.01531
C	-3.57426	-1.76389	0.30093
C	-2.31416	-1.41932	0.60857
H	-4.38908	-1.30876	0.89044
H	-2.16546	-0.70081	1.43333
O	-3.98216	-2.62586	-0.67155
H	-5.37575	-2.59733	-0.94830
Li	-1.83554	-3.78651	-1.62873
