22
373_4.467
O	1.51282	-1.41428	-0.00057
C	3.78165	-2.20869	0.31195
C	2.72735	-1.43567	0.61548
H	4.69485	-2.09325	0.92133
H	2.83436	-0.72925	1.45697
O	3.86674	-3.14000	-0.67825
H	5.18038	-3.61475	-0.93990
Li	1.46362	-3.42052	-1.68702
C	0.68251	-0.31724	0.35484
C	-0.68246	-0.31727	-0.35479
H	0.52708	-0.31302	1.45847
H	1.21663	0.63030	0.10975
H	-1.21667	0.63023	-0.10977
H	-0.52709	-0.31301	-1.45851
O	-1.51281	-1.41429	0.00061
C	-3.78164	-2.20866	-0.31197
C	-2.72731	-1.43567	-0.61548
H	-4.69481	-2.09320	-0.92138
H	-2.83428	-0.72925	-1.45698
O	-3.86678	-3.13995	0.67824
H	-5.18044	-3.61466	0.93985
Li	-1.46370	-3.42050	1.68710
