22
709_5.678
O	1.29764	-1.61150	0.72997
C	2.92859	-2.86651	-0.55117
C	1.84612	-2.08336	-0.42397
H	3.23527	-3.15616	-1.57129
H	1.32518	-1.77414	-1.34680
O	3.71429	-3.36005	0.44591
H	4.62669	-4.37174	0.04154
Li	2.94699	-2.21550	2.67583
C	0.00894	-1.03072	0.58445
C	0.06994	0.18508	-0.35636
H	-0.33570	-0.68282	1.58769
H	-0.92630	0.67058	-0.46138
H	0.40907	-0.10175	-1.37688
H	0.77405	0.95963	0.02247
O	-0.92126	-1.98879	0.09858
C	-3.30423	-2.43356	0.09549
C	-2.23005	-1.64428	0.25175
H	-4.29910	-1.98477	0.26107
H	-2.40356	-0.59201	0.53673
O	-3.31952	-3.75089	-0.25017
H	-4.57371	-4.39760	-0.08201
Li	-0.86937	-4.40719	-0.91145
