22
846_6.025
O	1.25430	-1.64001	-0.16090
C	3.22374	-2.99668	0.23551
C	2.51926	-1.85591	0.29554
H	4.24348	-2.99278	0.65824
H	3.00034	-0.97977	0.76408
O	2.82715	-4.18688	-0.29479
H	3.66870	-5.28895	0.01625
Li	0.54435	-3.77000	-1.51393
C	0.66318	-0.42251	0.27212
C	-0.76455	-0.20367	-0.25744
H	0.65477	-0.39084	1.38616
H	1.30557	0.42580	-0.06088
H	-1.10412	0.81819	0.03180
H	-0.75485	-0.22697	-1.37176
O	-1.70642	-1.15142	0.22618
C	-2.59811	-3.33696	-0.32580
C	-1.68994	-2.35285	-0.41521
H	-2.42487	-4.25056	-0.92071
H	-0.82228	-2.51399	-1.07838
O	-3.73401	-3.34855	0.42564
H	-4.63873	-4.40203	0.12370
Li	-3.66696	-1.22759	1.96457
