22
933_6.206
O	1.75581	-1.08270	-0.18363
C	2.68361	-3.27205	0.28783
C	1.73860	-2.32334	0.37813
H	2.50330	-4.22725	0.81098
H	0.83571	-2.55315	0.97022
O	3.86564	-3.20079	-0.38508
H	4.78416	-4.24431	-0.09029
Li	3.82652	-0.98694	-1.78816
C	0.75283	-0.19696	0.29465
C	-0.62931	-0.42362	-0.34177
H	0.67178	-0.29295	1.40208
H	1.07523	0.85126	0.09350
H	-1.32057	0.38161	0.00020
H	-0.54997	-0.31934	-1.44865
O	-1.20535	-1.68381	-0.02661
C	-3.29167	-2.89184	-0.28011
C	-2.42998	-1.90733	-0.57921
H	-4.24758	-2.92208	-0.83141
H	-2.72696	-1.18486	-1.35924
O	-3.12926	-3.88173	0.64120
H	-4.30555	-4.62340	0.93410
Li	-0.65701	-3.74206	1.50129
