56
10_0.271
C	-2.09314	-0.55896	0.00000
O	-2.31971	-1.94219	0.25538
C	-3.63960	-2.34736	-0.09503
C	-3.79263	-3.81461	0.22001
C	-3.82376	-4.74450	-0.74801
C	-3.88108	-4.18777	1.67907
O	-2.58709	-4.05528	2.25994
C	-2.56503	-4.41370	3.63875
C	-1.14606	-4.30614	4.13885
C	-0.76133	-3.32332	4.96851
C	-0.17711	-5.34841	3.63885
O	0.08236	-5.10022	2.25993
C	0.94257	-6.07592	1.67911
C	1.13098	-5.74183	0.21998
C	2.01462	-4.56063	-0.09504
O	1.32050	-3.36710	0.25535
C	2.09314	-2.19763	0.00000
C	0.52259	-6.44577	-0.74801
H	-3.73830	-4.46361	-1.80983
H	-3.91574	-5.81264	-0.49454
H	-3.81593	-2.15549	-1.18127
H	-4.39297	-1.75309	0.47648
H	-4.24015	-5.23911	1.79518
H	-4.61134	-3.52448	2.20267
H	-2.24139	-0.40662	-1.09600
H	-2.79246	0.07105	0.60046
H	-3.24252	-3.73625	4.21329
H	-2.93829	-5.45724	3.77606
H	-1.48306	-2.56307	5.30734
H	0.28205	-3.24549	5.31343
H	-0.61148	-6.36806	3.77608
H	0.78020	-5.31092	4.21333
H	1.92910	-6.08461	2.20269
H	0.49258	-7.09162	1.79524
H	-0.13504	-7.29252	-0.49451
H	0.65051	-6.18155	-1.80985
H	2.27437	-4.53939	-1.18130
H	2.97121	-4.63568	0.47651
H	3.03441	-2.20976	0.60042
H	2.30545	-2.18638	-1.09600
Li	-0.76614	-3.33564	1.12523
C	0.31233	-0.70966	-0.45570
C	1.18590	-1.30240	0.38871
C	0.77640	-1.01047	1.76925
C	-0.33141	-0.25031	1.76164
C	-0.76827	0.03809	0.32935
C	0.32701	-0.73180	-1.97022
C	-0.73649	1.55100	0.05008
H	1.29925	-1.36199	2.67451
H	-0.86637	0.12373	2.65044
H	0.41353	0.29581	-2.38598
H	1.18128	-1.32207	-2.36786
H	-0.60437	-1.18551	-2.37414
H	0.27401	1.98232	0.23004
H	-1.01221	1.78190	-1.00298
H	-1.45058	2.10137	0.70285
