57
10_0.221
C	-2.19881	-1.84979	0.00000
O	-1.71129	-2.73451	1.00471
C	-2.58183	-3.84150	1.21873
C	-1.99588	-4.71265	2.30189
C	-1.42765	-5.89706	2.02439
C	-2.05538	-4.17386	3.70976
O	-1.09454	-3.12977	3.83637
C	-1.05807	-2.57339	5.14755
C	0.03148	-1.53141	5.19546
C	-0.24694	-0.21954	5.25679
C	1.45038	-2.04094	5.14763
O	1.70968	-2.53463	3.83638
C	3.01177	-3.09840	3.70979
C	3.17626	-3.61490	2.30183
C	3.35783	-2.58089	1.21873
O	2.11269	-1.92294	1.00469
C	2.19881	-0.91645	0.00000
C	3.13810	-4.92800	2.02436
H	-1.37122	-6.27276	0.99030
H	-0.98750	-6.50814	2.82842
H	-2.69907	-4.41688	0.26846
H	-3.59606	-3.48520	1.52162
H	-1.83414	-4.98100	4.44956
H	-3.07967	-3.78771	3.93140
H	-2.27071	-2.44344	-0.94276
H	-3.18900	-1.42710	0.29563
H	-2.05096	-2.12334	5.39179
H	-0.85545	-3.37015	5.90338
H	-1.29149	0.13017	5.27381
H	0.55762	0.53284	5.27415
H	1.58884	-2.85138	5.90340
H	2.17485	-1.22646	5.39183
H	3.79094	-2.32948	3.93139
H	3.13748	-3.92577	4.44958
H	2.98406	-5.66519	2.82844
H	3.23916	-5.29428	0.99029
H	3.69866	-3.05901	0.26840
H	4.13987	-1.84331	1.52163
H	2.93203	-0.12799	0.29557
H	2.50566	-1.42970	-0.94279
Li	0.21925	-2.41599	2.13762
C	1.01163	-0.25481	-0.14237
C	-0.00425	-1.32622	-0.59256
C	-1.38659	-0.76417	-0.19388
C	-1.10732	0.05663	1.09824
C	0.43528	0.16448	1.22979
C	1.02044	0.94330	-1.11398
H	0.18580	-2.27967	-0.04904
H	0.06161	-1.53797	-1.68420
H	-1.73856	-0.07032	-0.99341
H	-1.53718	-0.44239	1.99663
H	-1.57059	1.06727	1.02198
H	0.75856	1.18897	1.52427
H	0.78675	-0.53800	2.02000
H	1.32941	0.63566	-2.13787
H	0.02281	1.42604	-1.20276
H	1.73219	1.73120	-0.78083
