58
1_0.187
C	2.24779	-1.78372	0.00000
O	1.95457	-2.07028	-1.36447
C	3.03596	-2.72154	-2.02440
C	2.64364	-2.97256	-3.45917
C	2.33368	-4.20196	-3.90103
C	2.58999	-1.76853	-4.36657
O	1.43332	-1.00465	-4.03797
C	1.28214	0.14579	-4.86484
C	0.00001	0.84353	-4.48479
C	0.00000	2.01295	-3.82546
C	-1.28219	0.14589	-4.86487
O	-1.43335	-1.00464	-4.03798
C	-2.59004	-1.76847	-4.36657
C	-2.64371	-2.97254	-3.45910
C	-3.03601	-2.72151	-2.02440
O	-1.95459	-2.07028	-1.36446
C	-2.24779	-1.78370	0.00000
C	-2.33378	-4.20191	-3.90098
H	2.35648	-5.07194	-3.22554
H	2.02998	-4.35969	-4.94818
H	3.27010	-3.68209	-1.50445
H	3.95413	-2.08692	-1.98461
H	2.54114	-2.08441	-5.43687
H	3.51179	-1.15047	-4.24130
H	2.44136	-2.76342	0.49911
H	3.12865	-1.10212	0.07773
H	2.15996	0.82330	-4.72904
H	1.24935	-0.14969	-5.94130
H	0.94919	2.49582	-3.54340
H	-0.94323	2.50448	-3.53840
H	-1.24938	-0.14967	-5.94132
H	-2.15997	0.82334	-4.72908
H	-3.51186	-1.15041	-4.24128
H	-2.54123	-2.08431	-5.43685
H	-2.03004	-4.35963	-4.94817
H	-2.35659	-5.07192	-3.22554
H	-3.27014	-3.68206	-1.50438
H	-3.95413	-2.08684	-1.98460
H	-3.12872	-1.10212	0.07779
H	-2.44140	-2.76339	0.49915
Li	-0.00003	-1.54500	-2.37219
C	-0.67352	0.09002	-0.15247
C	0.67352	0.08995	-0.15249
C	1.23813	-1.07480	0.65396
C	-0.00006	-1.99911	0.77681
C	-1.23810	-1.07480	0.65391
C	-1.61536	1.12782	-0.73082
C	1.61537	1.12780	-0.73080
H	1.53831	-0.69909	1.66031
H	0.00001	-2.57903	1.72840
H	-0.00001	-2.73169	-0.06270
H	-1.53827	-0.69903	1.66031
H	-2.25276	1.57088	0.06599
H	-2.28857	0.67650	-1.49228
H	-1.07669	1.96364	-1.22593
H	1.07666	1.96361	-1.22592
H	2.28856	0.67654	-1.49227
H	2.25279	1.57078	0.06599
