55
4_0.19
C	-2.16238	-0.84581	-0.00000
O	-2.18288	-1.99196	0.84605
C	-3.47553	-2.58576	0.92040
C	-3.40588	-3.77725	1.84289
C	-3.44068	-5.03508	1.37451
C	-3.26715	-3.48497	3.31641
O	-1.93789	-3.03786	3.56652
C	-1.70205	-2.76065	4.94405
C	-0.25660	-2.36365	5.11199
C	0.10277	-1.09750	5.37654
C	0.76486	-3.46076	4.94414
O	0.81985	-3.82059	3.56652
C	1.71606	-4.89928	3.31645
C	1.68058	-5.22086	1.84284
C	2.36573	-4.24364	0.92040
O	1.57774	-3.05931	0.84602
C	2.16238	-2.07328	-0.00000
C	1.04944	-6.30942	1.37448
H	-3.52203	-5.23816	0.29478
H	-3.36788	-5.89086	2.06441
H	-3.80664	-2.89485	-0.10070
H	-4.22049	-1.84777	1.30478
H	-3.47633	-4.40091	3.92057
H	-4.00379	-2.70434	3.62525
H	-2.46215	-1.19302	-1.01783
H	-2.85498	-0.05994	0.38633
H	-2.38222	-1.94210	5.28374
H	-1.92357	-3.66122	5.56619
H	-0.66022	-0.30936	5.47834
H	1.16298	-0.81662	5.48020
H	0.48022	-4.34347	5.56621
H	1.77357	-3.12161	5.28378
H	2.75299	-4.62203	3.62524
H	1.41294	-5.78853	3.92060
H	0.53788	-6.99937	2.06443
H	1.01196	-6.52501	0.29477
H	2.48511	-4.68054	-0.10076
H	3.38728	-4.00699	1.30480
H	3.16463	-1.76843	0.38627
H	2.23509	-2.52617	-1.01785
Li	-0.37366	-2.77619	1.95221
C	-0.30562	-0.06890	1.34918
C	0.98112	-0.44501	1.35242
C	1.45311	-0.87583	-0.02883
C	0.09561	-1.10500	-0.74891
C	-0.93434	-0.17832	-0.03574
C	-0.99445	1.20375	-0.71132
H	-0.86274	0.29229	2.22968
H	1.64462	-0.43026	2.23319
H	2.01106	-0.03315	-0.50063
H	-0.21247	-2.16816	-0.62188
H	0.16132	-0.90792	-1.84334
H	-1.39431	1.13473	-1.74761
H	0.01011	1.67838	-0.77659
H	-1.65300	1.90338	-0.14965
