55
5_0.191
C	2.16748	-2.11619	0.00000
O	1.76866	-2.46100	-1.32360
C	2.62034	-3.44303	-1.90613
C	2.13322	-3.73516	-3.30358
C	1.49756	-4.87891	-3.60442
C	2.37140	-2.66567	-4.34059
O	1.46692	-1.59171	-4.09996
C	1.59934	-0.53900	-5.05093
C	0.55800	0.51040	-4.75173
C	0.88546	1.70237	-4.22806
C	-0.87335	0.14041	-5.05097
O	-1.29734	-0.83230	-4.09997
C	-2.62355	-1.29337	-4.34060
C	-2.96522	-2.33446	-3.30351
C	-3.23469	-1.83448	-1.90612
O	-2.00083	-1.42543	-1.32359
C	-2.16748	-0.92524	0.00000
C	-3.00313	-3.64240	-3.60437
H	1.31066	-5.64530	-2.83540
H	1.13201	-5.06312	-4.62719
H	2.60875	-4.36905	-1.28148
H	3.67393	-3.07387	-1.93794
H	2.20927	-3.07142	-5.36860
H	3.42669	-2.30408	-4.28561
H	2.11112	-3.05206	0.60609
H	3.19860	-1.68803	0.00061
H	2.62819	-0.10766	-4.99216
H	1.45788	-0.93013	-6.08734
H	1.93625	1.94416	-4.00208
H	0.11387	2.45433	-3.99808
H	-0.95158	-0.26817	-6.08737
H	-1.53740	1.03677	-4.99220
H	-3.34601	-0.44339	-4.28559
H	-2.69150	-1.72496	-5.36858
H	-2.78295	-3.98752	-4.62719
H	-3.23402	-4.39675	-2.83540
H	-3.69782	-2.63643	-1.28141
H	-3.95176	-0.97882	-1.93794
H	-2.83521	-0.03038	0.00067
H	-2.59719	-1.75854	0.60613
Li	-0.00785	-1.54915	-2.38399
C	-0.16164	0.41235	-0.39257
C	1.12911	0.04344	-0.38377
C	1.40019	-1.10565	0.57473
C	-0.03659	-1.63832	0.81706
C	-0.98999	-0.43710	0.56393
C	-0.76348	1.58083	-1.14480
H	1.93170	0.54066	-0.95331
H	1.82826	-0.69412	1.51892
H	-0.15984	-2.06480	1.83912
H	-1.14660	0.13641	1.50761
H	-1.22475	2.31009	-0.44284
H	-1.55146	1.24046	-1.85184
H	0.00431	2.12490	-1.73827
H	-0.25923	-2.44918	0.08603
