77
over2
O	-1.686920	-0.517181	1.593903
C	-2.491684	0.472992	1.996567
C	-3.502975	0.277206	2.938171
C	-4.308472	1.355194	3.316666
C	-4.109375	2.619644	2.753357
C	-3.097412	2.823334	1.808685
C	-2.290833	1.738647	1.440262
O	-1.305771	1.878387	0.542862
O	-1.162720	-1.852631	-0.890717
C	-1.845184	-1.683441	-2.031250
C	-2.550247	-2.741425	-2.620010
C	-3.241837	-2.507919	-3.813705
C	-3.226990	-1.240509	-4.404587
C	-2.526184	-0.189087	-3.806641
C	-1.834015	-0.414764	-2.615982
O	-1.144974	0.549332	-1.994690
O	1.043106	-1.877319	0.930908
C	1.731964	-1.712585	2.068253
C	2.396362	-2.785278	2.677292
C	3.096786	-2.555557	3.866700
C	3.133560	-1.276627	4.431335
C	2.475464	-0.210327	3.811600
C	1.769348	-0.433487	2.628738
O	1.117279	0.544205	1.988983
O	1.616928	-0.610428	-1.578430
C	2.458664	0.340622	-1.999557
C	3.461426	0.088547	-2.936951
C	4.308670	1.127136	-3.333923
C	4.155289	2.409805	-2.798233
C	3.153168	2.669495	-1.856766
C	2.303650	1.624313	-1.470840
O	1.327682	1.817581	-0.573364
C	-2.956177	4.212769	1.247559
O	-3.675491	5.135910	1.656952
N	-2.037933	4.385971	0.292084
C	-1.834915	5.678253	-0.339493
C	-2.623108	-4.132065	-2.048950
O	-3.227081	-5.031815	-2.651230
N	-2.022324	-4.332077	-0.871918
C	-2.053543	-5.627213	-0.214859
C	2.415955	-4.188263	2.132843
O	2.985489	-5.098785	2.752380
N	1.807663	-4.387680	0.959702
C	1.789246	-5.695267	0.327377
C	3.065552	4.073486	-1.321747
O	3.819351	4.960648	-1.748413
N	2.154953	4.299728	-0.370056
C	2.001984	5.610458	0.237152
H	-3.659302	-0.718400	3.387390
H	-5.099854	1.209702	4.071182
H	-4.760406	3.459763	3.048721
H	-2.796326	6.031998	-0.769241
H	-1.488724	6.408844	0.422256
H	-1.089859	5.574432	-1.156845
H	-2.512482	0.808823	-4.277298
H	-3.763916	-1.071777	-5.353348
H	-3.810165	-3.326447	-4.286819
H	-1.560272	-5.547577	0.777145
H	-3.109665	-5.939865	-0.069565
H	-1.502670	-6.366577	-0.834366
H	2.506073	0.797760	4.259216
H	3.677414	-1.110184	5.376526
H	3.631210	-3.386673	4.357162
H	2.832153	-6.055664	0.198807
H	1.237320	-6.408844	0.975632
H	1.309189	-5.613556	-0.670959
H	3.578430	-0.920258	-3.368439
H	5.097137	0.935974	-4.081329
H	4.834656	3.219879	-3.112915
H	1.246384	5.552902	1.049377
H	1.652664	6.332565	-0.531265
H	2.973984	5.930527	0.669449
H	-1.462158	3.569200	-0.009613
H	1.344177	-3.580521	0.487000
H	-1.528275	-3.534363	-0.414581
H	1.548309	3.511505	-0.053375
U	-0.024414	-0.008500	0.002457
