36
1_1.22
O	1.50804	-2.86509	0.09196
C	3.34165	-4.45065	0.10759
C	2.80643	-3.23181	0.27846
H	4.42110	-4.56937	0.30582
H	3.47661	-2.41858	0.60726
O	2.70303	-5.58628	-0.28940
H	3.45476	-6.78139	-0.12779
Li	0.89985	-5.18146	-0.97392
C	1.24156	-0.48575	-0.46503
C	0.11753	-0.47852	-1.50975
C	-1.12553	-0.58897	-0.61653
C	-0.73955	-1.73462	0.36771
C	0.83436	-1.66598	0.46849
C	-1.32260	0.75292	0.11992
C	-0.11294	1.12286	0.99957
C	1.22628	0.86405	0.28311
H	2.23747	-0.65263	-0.93878
H	0.11737	0.44324	-2.13536
H	0.19934	-1.35632	-2.19089
H	-2.03471	-0.83899	-1.21228
H	-1.18508	-1.52894	1.36891
H	1.12928	-1.42797	1.51711
H	-1.49304	1.55866	-0.63088
H	-2.24323	0.70926	0.74683
H	-0.14757	0.53273	1.94335
H	-0.17926	2.19239	1.30675
H	2.05990	0.89695	1.02220
H	1.42041	1.68564	-0.44445
O	-1.25340	-2.98548	-0.08482
C	-3.46855	-3.94311	0.14407
C	-2.58820	-2.93074	0.18046
H	-4.52072	-3.71714	0.39001
H	-2.96721	-1.93071	0.45413
O	-3.21892	-5.24566	-0.16592
H	-4.27834	-6.14417	0.13378
Li	-0.31613	-5.23452	-1.05172
