22
223_3.841
O	1.44366	-1.48185	-0.09378
C	3.58780	-2.49862	0.40136
C	2.51796	-1.74561	0.70080
H	4.37163	-2.60559	1.17128
H	2.48371	-1.27690	1.69966
O	3.83227	-3.16289	-0.76228
H	5.15734	-3.65755	-0.90018
Li	1.65732	-3.00451	-2.21685
C	0.59320	-0.44536	0.37702
C	-0.61160	-0.16796	-0.53854
H	0.23121	-0.69962	1.40000
H	1.19145	0.48993	0.47952
H	-1.15485	0.72850	-0.15854
H	-0.24941	0.09452	-1.55946
O	-1.52584	-1.25224	-0.62648
C	-3.48504	-2.13031	0.49908
C	-2.38993	-1.35839	0.42096
H	-4.07458	-2.09160	1.43157
H	-2.14207	-0.72954	1.29372
O	-3.97087	-2.97552	-0.45206
H	-5.28350	-3.46082	-0.20508
Li	-2.17986	-3.10502	-2.36172
