22
319_4.199
O	1.55671	-1.35397	-0.17958
C	3.71680	-2.35236	0.28255
C	2.80216	-1.37420	0.37133
H	4.68228	-2.20009	0.79563
H	3.06830	-0.47400	0.95219
O	3.59874	-3.53781	-0.37764
H	4.61247	-4.48897	-0.08245
Li	1.37515	-3.43589	-1.76203
C	0.71046	-0.31622	0.29601
C	-0.68938	-0.31625	-0.34209
H	0.61355	-0.39598	1.40345
H	1.19918	0.66534	0.09387
H	-1.24099	0.59116	-0.00224
H	-0.59282	-0.22804	-1.44900
O	-1.46296	-1.46556	-0.02601
C	-3.71758	-2.31885	-0.28084
C	-2.70697	-1.48796	-0.58007
H	-4.66502	-2.19422	-0.83348
H	-2.88164	-0.72809	-1.36153
O	-3.71932	-3.32050	0.64208
H	-5.00085	-3.86065	0.93431
Li	-1.25827	-3.58310	1.50555
