22
638_5.452
O	1.33478	-1.72196	-0.25860
C	2.91007	-3.47001	0.32376
C	1.71504	-2.86196	0.38238
H	3.04518	-4.39370	0.91294
H	0.93641	-3.32075	1.01628
O	4.00280	-3.07948	-0.38933
H	5.20629	-3.75817	-0.05690
Li	3.25414	-1.09568	-1.93054
C	0.10833	-1.16409	0.19289
C	-0.02699	0.29300	-0.28206
H	0.10777	-1.17216	1.30924
H	-0.97017	0.75636	0.08531
H	-0.03237	0.36426	-1.39275
H	0.81342	0.92263	0.08737
O	-0.99275	-1.93904	-0.26131
C	-3.29240	-2.42932	0.32827
C	-2.16590	-1.70229	0.38888
H	-4.15564	-2.08871	0.92611
H	-2.16780	-0.80578	1.03297
O	-3.50778	-3.56220	-0.39648
H	-4.69745	-4.26546	-0.06539
Li	-1.42497	-3.89421	-1.95306
