26
740_1.56
O	1.90498	-2.12000	0.34711
C	3.79721	-3.61565	0.10455
C	3.21058	-2.47575	0.50172
H	4.87422	-3.73823	0.31344
H	3.83902	-1.72673	1.01419
O	3.21473	-4.66495	-0.53946
H	4.00702	-5.84321	-0.59868
Li	0.40830	-3.67288	-1.14287
C	-1.49235	-0.10598	-0.58843
C	0.02785	0.10760	-0.67156
C	0.70728	-0.03713	0.66639
C	1.52086	-1.02773	1.06436
H	-1.94452	0.10383	-1.58574
H	-1.93574	0.63233	0.11948
H	0.45825	-0.59639	-1.41670
H	0.23640	1.12946	-1.06398
H	0.48741	0.76704	1.38987
H	1.93457	-0.97303	2.08632
O	-1.85337	-1.42052	-0.18732
C	-3.81577	-2.82712	0.02900
C	-3.19410	-1.64504	-0.10310
H	-4.91839	-2.82382	0.08206
H	-3.82134	-0.73792	-0.15096
O	-3.24139	-4.05960	0.10749
H	-4.14469	-5.14864	-0.02501
Li	-0.26700	-3.46150	0.24784
