26
793_2.097
O	1.85275	-1.42071	0.19189
C	3.81546	-2.82762	-0.01961
C	3.19364	-1.64543	0.11079
H	4.91820	-2.82447	-0.07015
H	3.82088	-0.73838	0.15988
O	3.24110	-4.06004	-0.09913
H	4.14395	-5.14917	0.03569
Li	0.65356	-3.69716	-0.30936
C	1.49099	-0.10603	0.59188
C	-0.02937	0.10775	0.67147
C	-0.70575	-0.03719	-0.66800
C	-1.51855	-1.02778	-1.06760
H	1.94090	0.10394	1.59017
H	1.93609	0.63205	-0.11519
H	-0.46157	-0.59600	1.41578
H	-0.23869	1.12974	1.06317
H	-0.48412	0.76679	-1.39116
H	-1.92992	-0.97326	-2.09052
O	-1.90446	-2.11983	-0.35098
C	-3.79743	-3.61518	-0.11242
C	-3.20975	-2.47545	-0.50850
H	-4.87397	-3.73767	-0.32374
H	-3.83691	-1.72647	-1.02258
O	-3.21657	-4.66441	0.53317
H	-4.00915	-5.84255	0.59084
Li	-0.79131	-3.92117	1.19421
