22
817_5.954
O	1.18106	-1.69232	-0.17316
C	3.05468	-3.16641	0.26608
C	2.40381	-1.99533	0.34465
H	4.04565	-3.23592	0.74748
H	2.89712	-1.16940	0.88602
O	2.63420	-4.30688	-0.34842
H	3.40090	-5.46482	-0.04700
Li	0.45307	-3.71324	-1.67564
C	0.62409	-0.46902	0.28791
C	-0.75632	-0.15108	-0.31216
H	0.54910	-0.49227	1.39967
H	1.32590	0.36062	0.03822
H	-1.06316	0.87128	0.01003
H	-0.67962	-0.11953	-1.42368
O	-1.77071	-1.07199	0.06489
C	-2.45625	-3.35930	-0.35296
C	-1.77286	-2.23954	-0.63645
H	-2.33905	-4.21865	-1.03589
H	-1.13321	-2.24266	-1.53613
O	-3.29632	-3.57203	0.69779
H	-3.67148	-4.92816	0.89702
Li	-3.63061	-1.26768	1.90174
