32
999_2.06
O	2.88110	-2.50373	-0.03689
C	3.72893	-4.76158	0.20738
C	3.80176	-3.42923	0.35158
H	4.57322	-5.36523	0.58339
H	4.70173	-3.01415	0.83774
O	2.71854	-5.47834	-0.35867
H	2.78438	-6.88049	-0.13697
Li	1.09160	-3.79957	-1.44757
C	3.06658	-1.24341	0.44502
C	2.12122	-0.39580	0.88005
C	0.63491	-0.64926	0.94303
C	-0.10783	0.04420	-0.21062
C	-1.64154	-0.12424	-0.16283
C	-2.29654	0.74234	-1.25454
H	4.11586	-0.90171	0.46925
H	2.44159	0.60547	1.21618
H	0.43166	-1.74131	0.92656
H	0.24787	-0.27787	1.91945
H	0.27604	-0.34286	-1.18265
H	0.13508	1.13173	-0.18714
H	-2.00766	0.23159	0.82959
H	-1.96898	0.43683	-2.27346
H	-3.40667	0.66540	-1.22594
H	-2.04161	1.81891	-1.13196
O	-2.03431	-1.48504	-0.32842
C	-3.86519	-2.99468	0.16680
C	-3.31924	-1.77802	0.01535
H	-4.93062	-3.04718	0.45089
H	-3.96721	-0.90028	0.18355
O	-3.25324	-4.20130	0.00983
H	-3.99492	-5.31384	0.49117
Li	-0.91654	-3.76222	-0.98917
