20
10__Drive:____0.00_-10.00_-20.00                                                  
O	0.00000	0.00000	0.00000
C	-0.00000	0.00000	1.24794
N	-0.00000	1.15517	1.99921
N	0.01352	-1.15380	1.99874
C	-0.01384	2.41026	1.27329
C	0.02668	-2.40902	1.27278
H	0.00962	1.12684	3.04017
H	0.02285	-1.12407	3.04061
H	-0.69176	2.35672	0.39047
H	1.00527	2.67528	0.90863
H	-0.36858	3.24404	1.92271
H	0.92837	-2.48811	0.62278
H	-0.87423	-2.50793	0.62445
H	0.03675	-3.27607	1.97335
Du	2.03028	0.01533	4.58688
Du	0.04195	-1.98573	4.59432
O	0.08132	0.71694	6.68873
O	0.03041	0.00235	4.60572
N	0.03783	-0.24608	5.87981
O	0.01241	-1.44263	6.27018
