20
1__Drive:__-10.00_-20.00                                                         
O	0.00000	0.00000	0.00000
C	0.00000	0.00000	1.24919
N	0.00000	1.15558	1.99785
N	0.01371	-1.15363	1.99951
C	-0.01406	2.40539	1.26281
C	0.02690	-2.40827	1.27296
H	0.00962	1.15523	3.04696
H	0.02316	-1.13601	3.04637
H	-0.69204	2.34532	0.38042
H	1.00496	2.66784	0.89617
H	-0.36873	3.24382	1.90607
H	0.92853	-2.48710	0.62282
H	-0.87401	-2.50695	0.62463
H	0.03701	-3.27581	1.97288
Du	0.03313	0.06262	4.91567
Du	2.03298	0.05206	4.89415
O	0.02663	1.16908	4.91503
O	0.03960	-1.04396	4.91628
N	0.15080	0.06326	5.54940
O	0.36907	0.06474	6.78440
