20
2__Drive:__-10.00_-10.00___0.00                                                  
O	0.00000	0.00000	0.00000
C	0.00000	0.00000	1.24794
N	-0.00000	1.15517	1.99921
N	0.01352	-1.15380	1.99874
C	-0.01384	2.41026	1.27329
C	0.02668	-2.40902	1.27278
H	0.00962	1.12684	3.04017
H	0.02285	-1.12407	3.04060
H	-0.92164	2.49413	0.63245
H	0.88100	2.50460	0.61591
H	-0.01238	3.27750	1.97377
H	0.92837	-2.48811	0.62277
H	-0.87423	-2.50793	0.62445
H	0.03675	-3.27607	1.97334
Du	2.03028	0.01532	4.58688
Du	0.04195	-1.98573	4.59432
O	0.41174	0.72582	6.65104
O	0.03041	0.00235	4.60572
N	0.26312	-0.24105	5.85939
O	0.34447	-1.43635	6.24591
