20
5__Drive:__-10.00___0.00___0.00                                                  
O	0.00000	0.00000	0.00000
C	0.00000	0.00000	1.24794
N	-0.00000	1.15517	1.99921
N	0.01352	-1.15380	1.99874
C	-0.01384	2.41026	1.27329
C	0.02668	-2.40902	1.27278
H	0.00962	1.12684	3.04017
H	0.02285	-1.12407	3.04061
H	-0.92164	2.49413	0.63245
H	0.88100	2.50460	0.61591
H	-0.01238	3.27750	1.97377
H	0.92837	-2.48811	0.62277
H	-0.87423	-2.50793	0.62445
H	0.03675	-3.27607	1.97335
Du	2.03028	0.01533	4.58688
Du	0.04195	-1.98573	4.59432
O	0.38092	1.07611	6.49684
O	0.03041	0.00235	4.60572
N	0.26578	-0.01594	5.88218
O	0.38309	-1.12452	6.46704
