20
6__Drive:____0.00__20.00                                                         
O	0.00000	0.00000	0.00000
C	0.00000	-0.00000	1.24919
N	0.00000	1.15557	1.99785
N	0.01371	-1.15363	1.99951
C	-0.01406	2.40539	1.26281
C	0.02690	-2.40827	1.27296
H	0.00962	1.15523	3.04696
H	0.02316	-1.13601	3.04637
H	-1.04279	2.65587	0.91517
H	0.64803	2.35321	0.36803
H	0.34294	3.24791	1.89941
H	0.92853	-2.48710	0.62282
H	-0.87401	-2.50695	0.62463
H	0.03701	-3.27581	1.97288
Du	0.03314	0.06262	4.91567
Du	2.03298	0.05206	4.89415
O	0.02654	1.16908	4.91287
O	0.03969	-1.04395	4.91843
N	0.03897	0.06387	5.56020
O	0.03947	0.06653	6.81434
