20
8__Drive:___10.00___0.00                                                         
O	0.00000	0.00000	0.00000
C	0.00000	0.00000	1.24919
N	0.00000	1.15557	1.99785
N	0.01371	-1.15363	1.99951
C	-0.01406	2.40539	1.26281
C	0.02690	-2.40828	1.27296
H	0.00962	1.15523	3.04696
H	0.02316	-1.13601	3.04637
H	-0.92193	2.48447	0.62141
H	0.88069	2.49502	0.60471
H	-0.01257	3.27768	1.95683
H	0.92853	-2.48710	0.62282
H	-0.87401	-2.50695	0.62463
H	0.03701	-3.27581	1.97288
Du	0.03314	0.06261	4.91567
Du	2.03298	0.05206	4.89415
O	0.02684	1.16907	4.91072
O	0.03941	-1.04395	4.92057
N	-0.07304	0.06444	5.55142
O	-0.29032	0.06820	6.78660
