46
132_6.576
O	3.65931	-2.80642	0.23666
C	4.98986	-3.25720	0.02235
H	5.63780	-2.69497	0.73648
H	5.19290	-3.14924	-1.06911
H	5.00861	-4.33929	0.28984
C	3.51428	-1.42521	-0.06412
C	2.09554	-1.03381	-0.51213
H	3.80241	-0.82024	0.82648
H	4.23462	-1.15701	-0.87180
H	2.10099	0.03276	-0.83705
H	1.81056	-1.63282	-1.40786
O	1.11003	-1.19796	0.49836
Li	1.23889	-2.73310	2.15191
C	0.02490	-0.29611	0.32984
H	-0.43392	-0.45424	-0.67384
H	0.40902	0.75035	0.34400
O	-1.61304	-1.75166	1.24213
C	-1.05264	-0.45691	1.41259
H	-0.56373	-0.44870	2.41598
H	-1.87233	0.27486	1.22082
C	-2.62447	-2.02055	2.20336
C	-3.69392	-3.01370	1.71688
H	-2.15449	-2.40876	3.13643
H	-3.12144	-1.06108	2.47828
H	-4.50299	-3.07613	2.48151
H	-4.16982	-2.62153	0.78840
O	-3.19332	-4.32132	1.47445
Li	-0.97228	-4.09755	-1.79505
C	-4.19510	-5.31277	1.65533
C	-3.70016	-6.74749	1.40368
H	-5.05741	-5.09446	0.98382
H	-4.58401	-5.24286	2.69795
H	-4.51025	-7.46232	1.67926
H	-2.84315	-6.96876	2.08112
O	-3.21511	-7.49050	-2.92435
C	-3.43967	-7.92703	-4.25796
H	-3.31950	-9.03675	-4.25661
H	-4.42315	-7.50479	-4.57206
H	-2.63445	-7.47544	-4.88287
C	-4.18295	-8.01577	-2.02623
C	-4.43900	-7.12362	-0.79935
H	-3.86318	-9.02859	-1.68840
H	-5.14248	-8.15706	-2.57623
H	-5.28737	-7.54923	-0.21430
H	-4.76687	-6.11323	-1.13696
O	-3.31366	-6.99239	0.05837
