46
136_6.641
O	3.70443	-2.85485	-0.38598
C	5.04454	-3.32484	-0.33394
H	5.64949	-2.64040	-0.97541
H	5.31311	-3.40851	0.74543
H	5.04496	-4.34293	-0.78815
C	3.58058	-1.54923	0.16106
C	2.19217	-1.25477	0.75463
H	3.81584	-0.79480	-0.62487
H	4.34876	-1.42088	0.95893
H	2.21933	-0.26184	1.26111
H	1.96038	-2.00421	1.54645
O	1.14732	-1.24734	-0.20843
Li	1.17332	-2.46705	-2.11083
C	0.07613	-0.39845	0.18039
H	-0.56255	-0.18019	-0.70693
H	0.48641	0.57864	0.52654
O	-1.40929	-2.16268	0.74055
C	-0.78986	-1.00891	1.29245
H	-1.60540	-0.38417	1.72691
H	-0.12679	-1.36382	2.11538
C	-2.27849	-1.83295	-0.33416
C	-3.43774	-2.82684	-0.52138
H	-1.69051	-1.76634	-1.27865
H	-2.70006	-0.81644	-0.15486
H	-4.12890	-2.43230	-1.30228
H	-4.03079	-2.88719	0.42044
O	-3.01877	-4.13093	-0.89957
Li	-1.28959	-5.73367	2.28066
C	-4.01424	-4.80771	-1.65473
C	-3.60617	-6.22629	-2.08811
H	-4.95758	-4.85723	-1.06327
H	-4.24542	-4.20510	-2.56391
H	-4.38969	-6.63550	-2.76769
H	-2.66731	-6.17596	-2.68673
O	-3.77756	-9.01068	1.33783
C	-4.20675	-10.01248	2.24980
H	-4.12243	-10.98922	1.71617
H	-5.21169	-9.70003	2.61946
H	-3.48696	-10.00054	3.10104
C	-4.62084	-8.93878	0.19635
C	-4.66817	-7.54481	-0.45276
H	-4.28730	-9.68836	-0.55802
H	-5.65395	-9.23295	0.49520
H	-5.43560	-7.54915	-1.26159
H	-5.00977	-6.79646	0.29932
O	-3.42677	-7.12711	-1.00387
