123
10_0.174
O	-4.27807	-1.85354	6.21464
C	-4.37309	-3.21184	6.34596
C	-4.68058	-3.75550	7.58367
C	-4.88965	-5.11984	7.51617
C	-4.72433	-5.92802	6.40739
C	-4.40285	-5.29884	5.16115
C	-4.22680	-3.94090	5.13092
O	-3.94820	-3.26953	4.07736
C	-4.22164	-6.09739	3.87184
N	-3.84065	-5.50846	2.79786
O	-4.48737	-7.34695	3.93430
O	-5.57189	-0.56699	3.91900
C	-5.80361	-0.45982	2.57522
C	-7.05277	-0.05515	2.13102
C	-7.07872	0.15012	0.76460
C	-6.05481	-0.10065	-0.12900
C	-4.79105	-0.51989	0.39999
C	-4.66616	-0.69988	1.75193
O	-3.58721	-1.06157	2.33817
O	4.28493	-1.83877	-6.21402
C	4.37706	-3.19682	-6.34978
C	-3.58842	-0.80087	-0.49832
N	-2.51357	-1.29275	-0.00000
O	-3.71924	-0.50130	-1.73477
O	-3.08619	0.54042	5.01158
C	-1.72393	0.66569	5.00989
C	-1.15203	1.87544	5.37166
C	0.22418	1.79359	5.46696
C	1.01170	0.70291	5.15038
C	0.35345	-0.51464	4.78079
C	-1.01432	-0.53252	4.71010
O	-1.71058	-1.56143	4.40159
C	4.68484	-3.73703	-7.58869
C	4.89087	-5.10206	-7.52545
C	1.12893	-1.78374	4.43447
N	0.50692	-2.82484	4.01636
O	2.39603	-1.74084	4.60563
C	4.72230	-5.91351	-6.41957
C	4.40065	-5.28770	-5.17168
C	4.22772	-3.92945	-5.13730
O	3.94904	-3.26082	-4.08178
C	4.21586	-6.09013	-3.88537
N	3.83482	-5.50374	-2.80991
O	4.47884	-7.33992	-3.95144
O	5.57853	-0.56254	-3.91246
C	5.80881	-0.46023	-2.56811
C	7.05835	-0.05997	-2.12098
C	7.08293	0.14084	-0.75378
C	6.05728	-0.11049	0.13759
C	4.79335	-0.52512	-0.39440
C	4.66990	-0.70049	-1.74712
O	3.59073	-1.05794	-2.33603
C	3.58878	-0.80636	0.50142
N	2.51357	-1.29430	-0.00000
O	3.71866	-0.51096	1.73904
O	3.09671	0.55394	-5.00476
C	1.73472	0.68234	-5.00448
C	1.16604	1.89463	-5.36304
C	-0.21012	1.81618	-5.46033
C	-1.00047	0.72628	-5.14847
C	-0.34552	-0.49388	-4.78198
C	1.02218	-0.51522	-4.70952
O	1.71560	-1.54669	-4.40346
C	-1.12427	-1.76241	-4.44079
N	-0.50514	-2.80636	-4.02529
O	-2.39099	-1.71627	-4.61349
H	-4.75996	-3.16741	8.50986
H	-3.74639	-6.02922	1.93539
H	-7.91968	0.09595	2.79100
H	4.76672	-3.14603	-8.51280
H	-1.72769	2.79137	5.57079
H	1.01463	-3.67618	3.81296
H	-5.17080	-5.54378	8.31426
H	-4.81360	-6.86988	6.47548
H	-3.65556	-4.57539	2.81842
H	-7.88387	0.49354	0.40437
H	-6.19084	-0.00492	-1.06275
H	7.92648	0.09120	-2.77933
H	-2.48129	-1.49689	0.92856
H	0.67280	2.56742	5.77661
H	1.95797	0.76505	5.17054
H	-0.43768	-2.79078	3.90739
H	1.74407	2.80991	-5.55840
H	5.17201	-5.52418	-8.32455
H	4.80953	-6.85539	-6.49059
H	3.73836	-6.02718	-1.94923
H	3.65185	-4.57018	-2.82760
H	7.88831	0.48127	-0.39143
H	6.19227	-0.01800	1.07191
H	2.48199	-1.49522	-0.92924
H	-0.65661	2.59205	-5.76811
H	-1.94666	0.79068	-5.16964
H	-1.01498	-3.65723	-3.82526
H	0.43940	-2.77480	-3.91496
H	0.00067	-5.31982	-0.00562
Fe	-3.71222	-1.28599	4.34659
Fe	3.71793	-1.27592	-4.34489
C	-0.38358	-0.10677	-0.67280
C	-1.22991	1.17704	-0.80746
C	-0.37577	2.44413	-0.66706
C	0.37734	2.44335	0.66900
C	1.23058	1.17567	0.80842
C	0.38354	-0.10749	0.67269
C	1.24981	-1.38206	0.85351
C	0.37045	-2.63525	0.67058
C	-0.37202	-2.63452	-0.67257
C	-1.25058	-1.38065	-0.85457
H	-1.63295	-1.38705	-1.90333
H	-1.00065	-3.55117	-0.75387
H	0.36480	-2.69513	-1.50567
H	-0.36645	-2.69606	1.50356
H	0.99847	-3.55243	0.75104
H	1.63209	-1.38947	1.90228
H	-0.36782	-0.09386	1.49567
H	1.75065	1.18330	1.79422
H	2.02183	1.19653	0.02602
H	-0.35005	2.50159	1.51146
H	1.02510	3.34797	0.74010
H	0.35155	2.50260	-1.50954
H	-1.02312	3.34913	-0.73749
H	-2.02117	1.19779	-0.02511
H	-1.74992	1.18571	-1.79332
H	0.36775	-0.09289	-1.49574
