107
1_0.093
O	-8.13340	-0.29380	1.76566
C	-7.97031	0.78534	2.59034
C	-9.08682	1.39418	3.14239
C	-8.74804	2.36441	4.06625
C	-7.47466	2.80397	4.37477
C	-6.36698	2.13134	3.76409
C	-6.61517	1.12251	2.87162
O	-5.70891	0.44516	2.27308
C	-4.91953	2.52289	4.05453
N	-3.95978	1.96053	3.41574
O	-4.74007	3.40576	4.96240
O	-6.40449	-2.63140	2.14716
C	-5.16913	-3.20200	2.28569
C	-5.01929	-4.30712	3.10889
C	-3.75318	-4.85416	3.02165
C	-2.68288	-4.35218	2.30590
C	-2.90891	-3.20479	1.47828
C	-4.15188	-2.62979	1.46899
O	-4.47365	-1.61085	0.76407
O	8.13246	-0.29947	-1.77331
C	7.96977	0.78028	-2.59728
C	-1.80050	-2.58539	0.62976
N	-2.00909	-1.48748	0.00000
O	-0.69639	-3.22875	0.57805
O	-7.33138	-1.91647	-0.54142
C	-7.15334	-1.29851	-1.74883
C	-7.68650	-1.87338	-2.89194
C	-7.55345	-1.05512	-3.99760
C	-6.88646	0.15385	-4.05625
C	-6.35699	0.68732	-2.83667
C	-6.49016	-0.03954	-1.68340
O	-6.06741	0.33838	-0.53578
C	9.08616	1.38784	-3.15042
C	8.74749	2.35891	-4.07349
C	-5.62326	2.02564	-2.78726
N	-5.08108	2.42303	-1.69467
O	-5.60754	2.70625	-3.87038
C	7.47428	2.80029	-4.38011
C	6.36654	2.12880	-3.76832
C	6.61470	1.11918	-2.87669
O	5.70821	0.44275	-2.27704
C	4.91931	2.52253	-4.05659
N	3.95968	1.96096	-3.41671
O	4.73968	3.40589	-4.96370
O	6.39999	-2.63470	-2.15343
C	5.16377	-3.20368	-2.29061
C	5.01138	-4.30814	-3.11421
C	3.74462	-4.85365	-3.02546
C	2.67602	-4.35065	-2.30803
C	2.90465	-3.20398	-1.48022
C	4.14842	-2.63052	-1.47244
O	4.47248	-1.61216	-0.76741
C	1.79816	-2.58345	-0.62985
N	2.00909	-1.48602	0.00000
O	0.69328	-3.22555	-0.57685
O	7.33148	-1.92207	0.53422
C	7.15594	-1.30446	1.74220
C	7.68988	-1.88060	2.88434
C	7.55935	-1.06275	3.99043
C	6.89414	0.14704	4.05052
C	6.36371	0.68172	2.83203
C	6.49430	-0.04471	1.67810
O	6.07048	0.33432	0.53131
C	5.63159	2.02101	2.78412
N	5.08845	2.41972	1.69242
O	5.61821	2.70129	3.86743
H	-10.12221	1.12809	2.88338
H	-2.99858	2.19741	3.62519
H	-5.81876	-4.70884	3.74876
H	10.12151	1.12030	-2.89284
H	-8.16951	-2.86139	-2.91412
H	-4.61861	3.32199	-1.65115
H	-9.46401	2.77231	4.53181
H	-7.34299	3.53369	4.96623
H	-4.16052	1.31231	2.74878
H	-3.60392	-5.65290	3.50709
H	-1.82547	-4.75259	2.36963
H	5.80947	-4.71049	-3.75541
H	-2.85284	-1.05595	0.08253
H	-7.95742	-1.35806	-4.79818
H	-6.77780	0.60890	-4.88137
H	-5.12553	1.86748	-0.92353
H	8.17165	-2.86929	2.90537
H	9.46330	2.76631	-4.53980
H	7.34271	3.53050	-4.97108
H	2.99846	2.19919	-3.62488
H	4.16041	1.31219	-2.75031
H	3.59372	-5.65193	-3.51101
H	1.81793	-4.75004	-2.37068
H	2.85327	-1.05562	-0.08335
H	7.96409	-1.36657	4.79040
H	6.78714	0.60185	4.87609
H	4.62701	3.31925	1.64988
H	5.13109	1.86446	0.92095
H	0.00083	3.60096	-0.00368
Fe	-6.37640	-0.95521	0.98625
Fe	6.37574	-0.95908	-0.99181
C	-0.00055	1.29913	-0.00047
C	0.00001	-0.04475	0.00002
C	0.99370	-0.82743	0.82855
C	-0.99303	-0.82873	-0.82791
H	-0.72632	1.86875	-0.60291
H	0.72488	1.86977	0.60147
H	1.54879	-0.13608	1.50317
H	0.44900	-1.53047	1.49789
H	-1.54869	-0.13835	-1.50310
H	-0.44777	-1.53185	-1.49672
