116
3_0.106
O	-6.12672	-0.42077	-5.31966
C	-6.35534	0.92721	-5.27569
C	-7.06347	1.53073	-6.30349
C	-7.34034	2.85796	-6.03634
C	-6.90443	3.59114	-4.94898
C	-6.17422	2.90353	-3.92607
C	-5.89943	1.57181	-4.08999
O	-5.26553	0.85285	-3.24170
C	-5.66758	3.61485	-2.67302
N	-4.93619	2.98640	-1.82713
O	-6.02952	4.83256	-2.52432
O	-6.56371	-2.00300	-2.88971
C	-6.36707	-2.23572	-1.55627
C	-7.38902	-2.79649	-0.80618
C	-6.98293	-3.10763	0.47764
C	-5.75661	-2.82481	1.04857
C	-4.74768	-2.24162	0.21519
C	-5.05355	-1.94675	-1.08680
O	-4.23337	-1.43476	-1.92576
O	6.13319	-0.41777	5.31457
C	6.36052	0.93040	5.27036
C	-3.35236	-1.91126	0.74077
N	-2.51877	-1.27729	-0.00000
O	-3.07861	-2.31649	1.92251
O	-4.45507	-2.76840	-4.77823
C	-3.15160	-2.75622	-5.19326
C	-2.63086	-3.87117	-5.83138
C	-1.35865	-3.64467	-6.32120
C	-0.59335	-2.50808	-6.14118
C	-1.19429	-1.39464	-5.46927
C	-2.47319	-1.51948	-4.99498
O	-3.11515	-0.59231	-4.38930
C	7.06935	1.53448	6.29706
C	7.34472	2.86203	6.02954
C	-0.44428	-0.08455	-5.23899
N	-0.98327	0.85374	-4.54998
O	0.71023	0.01308	-5.78142
C	6.90663	3.59478	4.94280
C	6.17571	2.90650	3.92088
C	5.90251	1.57448	4.08523
O	5.26787	0.85486	3.23774
C	5.66662	3.61744	2.66868
N	4.93464	2.98814	1.82376
O	6.02711	4.83531	2.51937
O	6.56823	-1.99973	2.88403
C	6.37003	-2.23267	1.55088
C	7.39152	-2.79234	0.79938
C	6.98391	-3.10398	-0.48392
C	5.75656	-2.82237	-1.05309
C	4.74827	-2.24015	-0.21835
C	5.05576	-1.94489	1.08325
O	4.23613	-1.43355	1.92342
C	3.35182	-1.91108	-0.74197
N	2.51877	-1.27777	0.00000
O	3.07679	-2.31675	-1.92334
O	4.46291	-2.76699	4.77557
C	3.16000	-2.75609	5.19248
C	2.64121	-3.87157	5.83130
C	1.36958	-3.64629	6.32280
C	0.60301	-2.51045	6.14394
C	1.20187	-1.39654	5.47119
C	2.48028	-1.52002	4.99504
O	3.12043	-0.59226	4.38850
C	0.45036	-0.08710	5.24188
N	0.98749	0.85179	4.55213
O	-0.70342	0.00962	5.78591
H	-7.37814	1.01049	-7.22018
H	-4.62191	3.44621	-0.98232
H	-8.40233	-2.98263	-1.19153
H	7.38569	1.01455	7.21329
H	-3.17185	-4.82218	-5.94457
H	-0.50083	1.73355	-4.41926
H	-7.88100	3.31161	-6.66691
H	-7.07821	4.52172	-4.88975
H	-4.69905	2.08093	-1.99802
H	-7.61315	-3.55670	1.02271
H	-5.59471	-3.00509	1.96554
H	8.40557	-2.97742	1.18335
H	-2.78551	-1.00027	-0.87009
H	-0.97075	-4.34354	-6.82819
H	0.30379	-2.47329	-6.44719
H	-1.84483	0.71687	-4.17014
H	3.18332	-4.82212	5.94376
H	7.88572	3.31635	6.65938
H	7.07942	4.52559	4.88328
H	4.61885	3.44771	0.97930
H	4.69858	2.08245	1.99494
H	7.61374	-3.55243	-1.02979
H	5.59349	-3.00297	-1.96991
H	2.78637	-1.00060	0.86971
H	0.98301	-4.34555	6.83043
H	-0.29383	-2.47655	6.45119
H	0.50406	1.73114	4.42198
H	1.84865	0.71574	4.17106
H	0.00251	3.34429	-0.00290
Fe	-4.97961	-1.07047	-3.77240
Fe	4.98460	-1.06870	3.76894
C	-0.77270	0.51379	-0.06893
C	0.77288	0.51352	0.06846
C	1.16495	-0.89522	-0.44643
C	-0.00030	-1.82110	0.00071
C	-1.16534	-0.89443	0.44712
C	-1.20486	0.77354	-1.52452
C	1.20513	0.77434	1.52393
H	-1.22126	1.30242	0.58012
H	1.22177	1.30140	-0.58121
H	1.16754	-0.86064	-1.56152
H	0.30850	-2.48066	0.84360
H	-0.30946	-2.48116	-0.84158
H	-1.16787	-0.85895	1.56220
H	-2.31147	0.84558	-1.61557
H	-0.86703	-0.02608	-2.21972
H	-0.79248	1.73552	-1.90294
H	2.31181	0.84602	1.61496
H	0.86706	-0.02463	2.21975
H	0.79313	1.73672	1.90157
