113
6_0.153
O	6.46768	0.62361	5.34097
C	6.65992	1.97795	5.34764
C	7.35473	2.56099	6.39614
C	7.59507	3.90437	6.17891
C	7.13635	4.66613	5.12100
C	6.42175	3.99831	4.07426
C	6.18329	2.65443	4.18816
O	5.56631	1.95128	3.31451
C	5.89241	4.74262	2.85009
N	5.17556	4.12715	1.98248
O	6.22108	5.97437	2.74691
O	6.93957	-0.85322	2.85194
C	6.74518	-1.04055	1.51103
C	7.77949	-1.54481	0.73819
C	7.37801	-1.81800	-0.55568
C	6.14281	-1.54690	-1.11300
C	5.12114	-1.02303	-0.25608
C	5.42296	-0.76950	1.05552
O	4.59189	-0.31187	1.91492
O	-6.47662	0.64140	-5.33081
C	-6.67199	1.99530	-5.32817
C	3.71589	-0.71072	-0.76594
N	2.86785	-0.12790	0.00000
O	3.44951	-1.07817	-1.96162
O	4.85796	-1.74599	4.71435
C	3.55591	-1.78462	5.13217
C	3.06721	-2.93652	5.72862
C	1.79088	-2.76306	6.22926
C	0.99483	-1.64147	6.09398
C	1.56364	-0.48766	5.46353
C	2.84397	-0.55998	4.98228
O	3.45898	0.40638	4.41087
C	-7.36938	2.58373	-6.37163
C	-7.61263	3.92507	-6.14504
C	0.77806	0.80954	5.28459
N	1.28960	1.78737	4.63053
O	-0.37700	0.85546	5.83265
C	-7.15418	4.68075	-5.08265
C	-6.43670	4.00751	-4.04138
C	-6.19544	2.66494	-4.16471
O	-5.57544	1.95724	-3.29660
C	-5.90731	4.74484	-2.81309
N	-5.18789	4.12500	-1.95058
O	-6.23857	5.97495	-2.70104
O	-6.94164	-0.85338	-2.85116
C	-6.74508	-1.04936	-1.51186
C	-7.77724	-1.56106	-0.74102
C	-7.37330	-1.84214	0.55048
C	-6.13801	-1.57207	1.10788
C	-5.11874	-1.04011	0.25317
C	-5.42301	-0.77832	-1.05632
O	-4.59404	-0.31289	-1.91384
C	-3.71340	-0.72803	0.76318
N	-2.86785	-0.13799	0.00000
O	-3.44453	-1.10311	1.95603
O	-4.86056	-1.72872	-4.72249
C	-3.55900	-1.76162	-5.14241
C	-3.06850	-2.90838	-5.74726
C	-1.79338	-2.72864	-6.24835
C	-0.99975	-1.60623	-6.10669
C	-1.57022	-0.45809	-5.46770
C	-2.84978	-0.53643	-4.98511
O	-3.46610	0.42464	-4.40640
C	-0.78740	0.83971	-5.28099
N	-1.30023	1.81205	-4.61967
O	0.36674	0.89216	-5.83031
H	7.68602	2.01514	7.29181
H	4.84650	4.60996	1.15634
H	8.79861	-1.71807	1.11415
H	-7.70058	2.04315	-7.27050
H	3.63385	-3.87623	5.80462
H	0.78333	2.65820	4.53422
H	8.12531	4.34821	6.82513
H	7.28492	5.60262	5.09672
H	4.96332	3.20981	2.11942
H	8.01838	-2.22900	-1.11863
H	5.98301	-1.69667	-2.03580
H	-8.79648	-1.73395	-1.11678
H	3.12971	0.12309	0.87942
H	1.42341	-3.49078	6.71017
H	0.09802	-1.64247	6.40289
H	2.15334	1.68822	4.24405
H	-3.63319	-3.84887	-5.82881
H	-8.14462	4.37225	-6.78755
H	-7.30483	5.61676	-5.05181
H	-4.85888	4.60304	-1.12157
H	-4.97373	3.20911	-2.09395
H	-8.01192	-2.25838	1.11145
H	-5.97653	-1.72784	2.02953
H	-3.13141	0.11823	-0.87734
H	-1.42490	-3.45231	-6.73478
H	-0.10328	-1.60313	-6.41682
H	-0.79583	2.68335	-4.51808
H	-2.16321	1.70834	-4.23265
H	-0.01027	4.62285	0.01889
Fe	5.33370	0.00226	3.77253
Fe	-5.33915	0.01192	-3.76818
C	1.44937	0.00458	-0.38493
C	0.75297	-1.25816	0.15515
C	-0.74856	-1.25908	-0.16867
C	-1.44936	-0.00463	0.38497
C	-0.75305	1.25821	-0.15513
C	0.74860	1.25914	0.16862
H	1.36029	0.01042	-1.49734
H	1.22886	-2.16688	-0.28106
H	0.89409	-1.32190	1.25860
H	-0.88946	-1.31149	-1.27281
H	-1.22125	-2.17411	0.25782
H	-1.36027	-0.01047	1.49738
H	-1.22884	2.16693	0.28111
H	-0.89406	1.32195	-1.25865
H	0.88950	1.31145	1.27275
H	1.22117	2.17406	-0.25780
