115
6_0.14
O	5.24540	-1.56159	-5.88657
C	5.39725	-2.91909	-5.95987
C	5.89115	-3.48620	-7.12457
C	6.12814	-4.84044	-6.98499
C	5.83224	-5.62278	-5.88486
C	5.32083	-4.97047	-4.71640
C	5.10298	-3.61881	-4.75444
O	4.65984	-2.92824	-3.77207
C	4.98359	-5.73870	-3.44012
N	4.43863	-5.13335	-2.44917
O	5.29157	-6.98002	-3.42493
O	6.16615	-0.16997	-3.47520
C	6.20365	-0.01814	-2.11635
C	7.36579	0.43984	-1.51539
C	7.19362	0.68348	-0.16598
C	6.06207	0.42364	0.58358
C	4.89783	-0.05173	-0.10285
C	4.96931	-0.27300	-1.45254
O	3.99431	-0.68634	-2.17171
O	-5.25177	-1.54412	5.88578
C	-5.40078	-2.90160	5.96478
C	3.58960	-0.34758	0.62742
N	2.61011	-0.88842	-0.00000
O	3.53674	-0.00983	1.85981
O	3.82747	0.82377	-4.93868
C	2.47542	0.90378	-5.13105
C	1.92515	2.08344	-5.60755
C	0.57893	1.95337	-5.89124
C	-0.21329	0.84632	-5.65291
C	0.42155	-0.33806	-5.15639
C	1.76579	-0.30859	-4.89505
O	2.44135	-1.30492	-4.45969
C	-5.89487	-3.46471	7.13108
C	-6.12883	-4.82009	6.99704
C	-0.35775	-1.62215	-4.88126
N	0.22932	-2.63011	-4.34738
O	-1.58896	-1.62606	-5.22878
C	-5.82977	-5.60648	5.90067
C	-5.31827	-4.95806	4.73010
C	-5.10354	-3.60574	4.76270
O	-4.66035	-2.91833	3.77787
C	-4.97756	-5.73109	3.45771
N	-4.43262	-5.12864	2.46485
O	-5.28277	-6.97295	3.44729
O	-6.17222	-0.16472	3.46724
C	-6.20831	-0.01873	2.10776
C	-7.37070	0.43402	1.50332
C	-7.19721	0.67235	0.15303
C	-6.06410	0.41182	-0.59384
C	-4.89980	-0.05803	0.09615
C	-4.97268	-0.27378	1.44670
O	-3.99760	-0.68201	2.16902
C	-3.58984	-0.35417	-0.63109
N	-2.61011	-0.89030	0.00000
O	-3.53606	-0.02139	-1.86487
O	-3.83765	0.84028	4.92970
C	-2.48603	0.92412	5.12357
C	-1.93901	2.10708	5.59576
C	-0.59298	1.98117	5.88170
C	0.20193	0.87488	5.64929
C	-0.42958	-0.31292	5.15697
C	-1.77359	-0.28766	4.89364
O	-2.44628	-1.28731	4.46167
C	0.35284	-1.59652	4.88831
N	-0.23129	-2.60813	4.35799
O	1.58353	-1.59643	5.23751
H	6.08273	-2.92158	-8.04894
H	4.23933	-5.63295	-1.59209
H	8.31205	0.60137	-2.05246
H	-6.08885	-2.89654	8.05274
H	2.49628	3.01212	-5.75359
H	-0.27702	-3.49188	-4.18970
H	6.53076	-5.27670	-7.72209
H	5.95747	-6.56268	-5.90969
H	4.23129	-4.20785	-2.52517
H	7.92990	1.06324	0.29186
H	6.06278	0.54953	1.52363
H	-8.31804	0.59563	2.03845
H	2.71449	-1.11904	-0.91698
H	0.15601	2.70304	-6.28501
H	-1.14875	0.87645	-5.80687
H	1.14786	-2.56172	-4.10887
H	-2.51240	3.03516	5.73706
H	-6.53139	-5.25423	7.73546
H	-5.95297	-6.54659	5.92931
H	-4.23117	-5.63154	1.61012
H	-4.22739	-4.20238	2.53712
H	-7.93364	1.04854	-0.30735
H	-6.06378	0.53385	-1.53452
H	-2.71515	-1.11713	0.91780
H	-0.17222	2.73348	6.27294
H	1.13719	0.90775	5.80436
H	0.27710	-3.46946	4.20458
H	-1.14967	-2.54279	4.11793
H	-0.00039	-5.22547	0.00745
Fe	4.40660	-0.96180	-4.13483
Fe	-4.41196	-0.94984	4.13265
C	-0.58193	0.28329	-0.34275
C	0.58171	0.28417	0.34243
C	1.31284	-0.99915	0.67596
C	0.58506	-2.26934	0.32497
C	-0.58339	-2.27018	-0.32204
C	-1.31214	-1.00093	-0.67466
C	-1.27904	1.55060	-0.79053
C	1.27783	1.55251	0.78849
H	1.47969	-1.01441	1.77809
H	1.06817	-3.22641	0.58701
H	-1.06571	-3.22794	-0.58288
H	-1.47889	-1.01787	-1.77677
H	-2.05632	1.86427	-0.05907
H	-1.77842	1.40846	-1.77437
H	-0.57612	2.40167	-0.92022
H	1.77737	1.41205	1.77260
H	0.57435	2.40336	0.91714
H	2.05492	1.86584	0.05662
